<?xml version="1.0" encoding="UTF-8"?>

<!-- generated on 05/09/20 20:03:18 by Eclipse SUMO netedit Version 1.5.0
<configuration xmlns:xsi="http://www.w3.org/2001/XMLSchema-instance" xsi:noNamespaceSchemaLocation="http://sumo.dlr.de/xsd/netconvertConfiguration.xsd">

    <input>
        <sumo-net-file value="anchieta.net.xml"/>
    </input>

    <output>
        <output-file value="anchieta.net.xml"/>
    </output>

    <processing>
        <geometry.min-radius.fix.railways value="false"/>
        <geometry.max-grade.fix value="false"/>
        <offset.disable-normalization value="true"/>
        <lefthand value="false"/>
    </processing>

    <junctions>
        <no-internal-links value="false"/>
        <no-turnarounds value="true"/>
        <junctions.corner-detail value="5"/>
        <junctions.limit-turn-speed value="5.5"/>
        <rectangular-lane-cut value="false"/>
    </junctions>

    <pedestrian>
        <walkingareas value="false"/>
    </pedestrian>

    <netedit>
        <route-files value="C:\Users\Francisco%20Cruz\Repositorios\traffic-light-scheduling-ga\assets\instances\common_files\bus.rou.xml"/>
    </netedit>

    <report>
        <aggregate-warnings value="5"/>
    </report>

</configuration>
-->

<routes xmlns:xsi="http://www.w3.org/2001/XMLSchema-instance" xsi:noNamespaceSchemaLocation="http://sumo.dlr.de/xsd/routes_file.xsd">
    <vType id="bus" vClass="bus"/>
    <flow id="bus_flow_0" type="bus" begin="0.00" from="449289363" to="142470423#2" via="215803178" end="3600.00" number="10"/>
    <flow id="bus_flow_1" type="bus" begin="0.00" from="159229390#0" to="142470423#2" via="215803178" end="3600.00" number="10"/>
    <flow id="bus_flow_10" type="bus" begin="0.00" from="217365460#0" to="-217365458#0" end="3600.00" number="10"/>
    <flow id="bus_flow_11" type="bus" begin="0.00" from="358043015#3" to="28490061#2" end="3600.00" number="10"/>
    <flow id="bus_flow_12" type="bus" begin="0.00" from="216243701" to="217553754" end="3600.00" number="15"/>
    <flow id="bus_flow_13" type="bus" begin="0.00" from="216650879" to="215803108" end="3600.00" number="15"/>
    <flow id="bus_flow_2" type="bus" begin="0.00" from="-142470423#2" to="159229390#1" via="198274971" end="3600.00" number="10"/>
    <flow id="bus_flow_3" type="bus" begin="0.00" from="159229390#0" to="28490061#2" end="3600.00" number="10"/>
    <flow id="bus_flow_4" type="bus" begin="0.00" from="159229390#0" to="215803108" end="3600.00" number="10"/>
    <flow id="bus_flow_5" type="bus" begin="0.00" from="159229390#0" to="-217365458#0" end="3600.00" number="10"/>
    <flow id="bus_flow_6" type="bus" begin="0.00" from="159229390#0" to="-109573928#1.8" end="3600.00" number="10"/>
    <flow id="bus_flow_7" type="bus" begin="0.00" from="159229390#0" to="142470433#4" end="3600.00" number="10"/>
    <flow id="bus_flow_8" type="bus" begin="0.00" from="358043015#3" to="159229390#1" end="3600.00" number="10"/>
    <flow id="bus_flow_9" type="bus" begin="0.00" from="109573928#1" to="159229390#1" end="3600.00" number="10"/>
</routes>
