<?xml version="1.0" encoding="UTF-8"?>

<!-- generated on 05/20/20 16:38:08 by Eclipse SUMO duarouter Version 1.6.0
<configuration xmlns:xsi="http://www.w3.org/2001/XMLSchema-instance" xsi:noNamespaceSchemaLocation="http://sumo.dlr.de/xsd/duarouterConfiguration.xsd">

    <input>
        <net-file value="..\..\anchieta_tls_special\anchieta.net.xml"/>
        <additional-files value="..\taz.add.xml"/>
        <route-files value="..\flow_od_generated.add.xml"/>
    </input>

    <output>
        <output-file value="duarouter.rou.xml"/>
        <alternatives-output value="duarouter.rou.alt.xml"/>
        <write-trips value="true"/>
    </output>

    <time>
        <begin value="0"/>
        <end value="3600"/>
    </time>

    <report>
        <verbose value="true"/>
    </report>

</configuration>
-->

<routes xmlns:xsi="http://www.w3.org/2001/XMLSchema-instance" xsi:noNamespaceSchemaLocation="http://sumo.dlr.de/xsd/routes_file.xsd">
    <trip id="26.0" depart="0.00" departLane="free" departSpeed="max" fromTaz="tf-5_anchieta" toTaz="geneto" from="216243701" to="142470433#4"/>
    <trip id="29.0" depart="0.00" departLane="free" departSpeed="max" fromTaz="tf-5_anchieta" toTaz="tf-5_guajara" from="216243701" to="217553754"/>
    <trip id="35.0" depart="0.00" departLane="free" departSpeed="max" fromTaz="tf-5_guajara" toTaz="tf-5_anchieta" from="216650879" to="215803108"/>
    <trip id="29.1" depart="1.00" departLane="free" departSpeed="max" fromTaz="tf-5_anchieta" toTaz="tf-5_guajara" from="216243701" to="217553754"/>
    <trip id="35.1" depart="1.00" departLane="free" departSpeed="max" fromTaz="tf-5_guajara" toTaz="tf-5_anchieta" from="216650879" to="215803108"/>
    <trip id="12.0" depart="2.00" departLane="free" departSpeed="max" fromTaz="geneto" toTaz="astrofisico" from="-142470433#4" to="-217365458#0"/>
    <trip id="35.2" depart="2.00" departLane="free" departSpeed="max" fromTaz="tf-5_guajara" toTaz="tf-5_anchieta" from="216650879" to="215803108"/>
    <trip id="11.0" depart="3.00" departLane="free" departSpeed="max" fromTaz="esperanza" toTaz="trinidad" from="109573928#1" to="28490061#2"/>
    <trip id="29.2" depart="3.00" departLane="free" departSpeed="max" fromTaz="tf-5_anchieta" toTaz="tf-5_guajara" from="216243701" to="217553754"/>
    <trip id="35.3" depart="3.00" departLane="free" departSpeed="max" fromTaz="tf-5_guajara" toTaz="tf-5_anchieta" from="216650879" to="215803108"/>
    <trip id="29.3" depart="4.00" departLane="free" departSpeed="max" fromTaz="tf-5_anchieta" toTaz="tf-5_guajara" from="216243701" to="217553754"/>
    <trip id="35.4" depart="4.00" departLane="free" departSpeed="max" fromTaz="tf-5_guajara" toTaz="tf-5_anchieta" from="216650879" to="215803108"/>
    <trip id="9.0" depart="4.00" departLane="free" departSpeed="max" fromTaz="esperanza" toTaz="tf-5_anchieta" from="109573928#1" to="215803108"/>
    <trip id="15.0" depart="5.00" departLane="free" departSpeed="max" fromTaz="geneto" toTaz="tf-5_anchieta" from="-142470433#4" to="215803108"/>
    <trip id="29.4" depart="5.00" departLane="free" departSpeed="max" fromTaz="tf-5_anchieta" toTaz="tf-5_guajara" from="216243701" to="217553754"/>
    <trip id="35.5" depart="5.00" departLane="free" departSpeed="max" fromTaz="tf-5_guajara" toTaz="tf-5_anchieta" from="216650879" to="215803108"/>
    <trip id="35.6" depart="6.00" departLane="free" departSpeed="max" fromTaz="tf-5_guajara" toTaz="tf-5_anchieta" from="216650879" to="215803108"/>
    <trip id="40.0" depart="6.00" departLane="free" departSpeed="max" fromTaz="trinidad" toTaz="geneto" from="217365460#0" to="142470433#4"/>
    <trip id="9.1" depart="6.00" departLane="free" departSpeed="max" fromTaz="esperanza" toTaz="tf-5_anchieta" from="109573928#1" to="215803108"/>
    <trip id="29.5" depart="7.00" departLane="free" departSpeed="max" fromTaz="tf-5_anchieta" toTaz="tf-5_guajara" from="216243701" to="217553754"/>
    <trip id="40.1" depart="7.00" departLane="free" departSpeed="max" fromTaz="trinidad" toTaz="geneto" from="217365460#0" to="142470433#4"/>
    <trip id="29.6" depart="8.00" departLane="free" departSpeed="max" fromTaz="tf-5_anchieta" toTaz="tf-5_guajara" from="216243701" to="217553754"/>
    <trip id="1.0" depart="9.00" departLane="free" departSpeed="max" fromTaz="astrofisico" toTaz="geneto" from="358043015#3" to="142470433#4"/>
    <trip id="29.7" depart="9.00" departLane="free" departSpeed="max" fromTaz="tf-5_anchieta" toTaz="tf-5_guajara" from="216243701" to="217553754"/>
    <trip id="35.7" depart="9.00" departLane="free" departSpeed="max" fromTaz="tf-5_guajara" toTaz="tf-5_anchieta" from="216650879" to="215803108"/>
    <trip id="0.0" depart="10.00" departLane="free" departSpeed="max" fromTaz="astrofisico" toTaz="esperanza" from="358043015#3" to="-109573928#1.8"/>
    <trip id="29.8" depart="10.00" departLane="free" departSpeed="max" fromTaz="tf-5_anchieta" toTaz="tf-5_guajara" from="216243701" to="217553754"/>
    <trip id="35.8" depart="10.00" departLane="free" departSpeed="max" fromTaz="tf-5_guajara" toTaz="tf-5_anchieta" from="216650879" to="215803108"/>
    <trip id="40.2" depart="10.00" departLane="free" departSpeed="max" fromTaz="trinidad" toTaz="geneto" from="217365460#0" to="142470433#4"/>
    <trip id="5.0" depart="10.00" departLane="free" departSpeed="max" fromTaz="astrofisico" toTaz="trinidad" from="358043015#3" to="28490061#2"/>
    <trip id="29.9" depart="11.00" departLane="free" departSpeed="max" fromTaz="tf-5_anchieta" toTaz="tf-5_guajara" from="216243701" to="217553754"/>
    <trip id="35.9" depart="12.00" departLane="free" departSpeed="max" fromTaz="tf-5_guajara" toTaz="tf-5_anchieta" from="216650879" to="215803108"/>
    <trip id="40.3" depart="12.00" departLane="free" departSpeed="max" fromTaz="trinidad" toTaz="geneto" from="217365460#0" to="142470433#4"/>
    <trip id="29.10" depart="14.00" departLane="free" departSpeed="max" fromTaz="tf-5_anchieta" toTaz="tf-5_guajara" from="216243701" to="217553754"/>
    <trip id="35.10" depart="14.00" departLane="free" departSpeed="max" fromTaz="tf-5_guajara" toTaz="tf-5_anchieta" from="216650879" to="215803108"/>
    <trip id="40.4" depart="14.00" departLane="free" departSpeed="max" fromTaz="trinidad" toTaz="geneto" from="217365460#0" to="142470433#4"/>
    <trip id="29.11" depart="15.00" departLane="free" departSpeed="max" fromTaz="tf-5_anchieta" toTaz="tf-5_guajara" from="216243701" to="217553754"/>
    <trip id="35.11" depart="15.00" departLane="free" departSpeed="max" fromTaz="tf-5_guajara" toTaz="tf-5_anchieta" from="216650879" to="215803108"/>
    <trip id="37.0" depart="15.00" departLane="free" departSpeed="max" fromTaz="tf-5_guajara" toTaz="trinidad" from="216650879" to="28490061#2"/>
    <trip id="40.5" depart="15.00" departLane="free" departSpeed="max" fromTaz="trinidad" toTaz="geneto" from="217365460#0" to="142470433#4"/>
    <trip id="26.1" depart="16.00" departLane="free" departSpeed="max" fromTaz="tf-5_anchieta" toTaz="geneto" from="216243701" to="142470433#4"/>
    <trip id="29.12" depart="16.00" departLane="free" departSpeed="max" fromTaz="tf-5_anchieta" toTaz="tf-5_guajara" from="216243701" to="217553754"/>
    <trip id="35.12" depart="16.00" departLane="free" departSpeed="max" fromTaz="tf-5_guajara" toTaz="tf-5_anchieta" from="216650879" to="215803108"/>
    <trip id="26.2" depart="17.00" departLane="free" departSpeed="max" fromTaz="tf-5_anchieta" toTaz="geneto" from="216243701" to="142470433#4"/>
    <trip id="29.13" depart="17.00" departLane="free" departSpeed="max" fromTaz="tf-5_anchieta" toTaz="tf-5_guajara" from="216243701" to="217553754"/>
    <trip id="35.13" depart="17.00" departLane="free" departSpeed="max" fromTaz="tf-5_guajara" toTaz="tf-5_anchieta" from="216650879" to="215803108"/>
    <trip id="43.0" depart="17.00" departLane="free" departSpeed="max" fromTaz="trinidad" toTaz="tf-5_guajara" from="217365460#0" to="217553754"/>
    <trip id="29.14" depart="18.00" departLane="free" departSpeed="max" fromTaz="tf-5_anchieta" toTaz="tf-5_guajara" from="216243701" to="217553754"/>
    <trip id="35.14" depart="18.00" departLane="free" departSpeed="max" fromTaz="tf-5_guajara" toTaz="tf-5_anchieta" from="216650879" to="215803108"/>
    <trip id="15.1" depart="19.00" departLane="free" departSpeed="max" fromTaz="geneto" toTaz="tf-5_anchieta" from="-142470433#4" to="215803108"/>
    <trip id="29.15" depart="19.00" departLane="free" departSpeed="max" fromTaz="tf-5_anchieta" toTaz="tf-5_guajara" from="216243701" to="217553754"/>
    <trip id="35.15" depart="19.00" departLane="free" departSpeed="max" fromTaz="tf-5_guajara" toTaz="tf-5_anchieta" from="216650879" to="215803108"/>
    <trip id="12.1" depart="20.00" departLane="free" departSpeed="max" fromTaz="geneto" toTaz="astrofisico" from="-142470433#4" to="-217365458#0"/>
    <trip id="29.16" depart="20.00" departLane="free" departSpeed="max" fromTaz="tf-5_anchieta" toTaz="tf-5_guajara" from="216243701" to="217553754"/>
    <trip id="35.16" depart="20.00" departLane="free" departSpeed="max" fromTaz="tf-5_guajara" toTaz="tf-5_anchieta" from="216650879" to="215803108"/>
    <trip id="1.1" depart="21.00" departLane="free" departSpeed="max" fromTaz="astrofisico" toTaz="geneto" from="358043015#3" to="142470433#4"/>
    <trip id="15.2" depart="21.00" departLane="free" departSpeed="max" fromTaz="geneto" toTaz="tf-5_anchieta" from="-142470433#4" to="215803108"/>
    <trip id="29.17" depart="21.00" departLane="free" departSpeed="max" fromTaz="tf-5_anchieta" toTaz="tf-5_guajara" from="216243701" to="217553754"/>
    <trip id="35.17" depart="21.00" departLane="free" departSpeed="max" fromTaz="tf-5_guajara" toTaz="tf-5_anchieta" from="216650879" to="215803108"/>
    <trip id="22.0" depart="22.00" departLane="free" departSpeed="max" fromTaz="incorp-tf5" toTaz="tf-5_guajara" from="80925648" to="217553754"/>
    <trip id="29.18" depart="22.00" departLane="free" departSpeed="max" fromTaz="tf-5_anchieta" toTaz="tf-5_guajara" from="216243701" to="217553754"/>
    <trip id="35.18" depart="22.00" departLane="free" departSpeed="max" fromTaz="tf-5_guajara" toTaz="tf-5_anchieta" from="216650879" to="215803108"/>
    <trip id="29.19" depart="23.00" departLane="free" departSpeed="max" fromTaz="tf-5_anchieta" toTaz="tf-5_guajara" from="216243701" to="217553754"/>
    <trip id="35.19" depart="23.00" departLane="free" departSpeed="max" fromTaz="tf-5_guajara" toTaz="tf-5_anchieta" from="216650879" to="215803108"/>
    <trip id="29.20" depart="24.00" departLane="free" departSpeed="max" fromTaz="tf-5_anchieta" toTaz="tf-5_guajara" from="216243701" to="217553754"/>
    <trip id="35.20" depart="24.00" departLane="free" departSpeed="max" fromTaz="tf-5_guajara" toTaz="tf-5_anchieta" from="216650879" to="215803108"/>
    <trip id="35.21" depart="25.00" departLane="free" departSpeed="max" fromTaz="tf-5_guajara" toTaz="tf-5_anchieta" from="216650879" to="215803108"/>
    <trip id="17.0" depart="26.00" departLane="free" departSpeed="max" fromTaz="geneto" toTaz="trinidad" from="-142470433#4" to="28490061#2"/>
    <trip id="29.21" depart="26.00" departLane="free" departSpeed="max" fromTaz="tf-5_anchieta" toTaz="tf-5_guajara" from="216243701" to="217553754"/>
    <trip id="35.22" depart="26.00" departLane="free" departSpeed="max" fromTaz="tf-5_guajara" toTaz="tf-5_anchieta" from="216650879" to="215803108"/>
    <trip id="6.0" depart="26.00" departLane="free" departSpeed="max" fromTaz="esperanza" toTaz="astrofisico" from="109573928#1" to="-217365458#0"/>
    <trip id="29.22" depart="27.00" departLane="free" departSpeed="max" fromTaz="tf-5_anchieta" toTaz="tf-5_guajara" from="216243701" to="217553754"/>
    <trip id="36.0" depart="27.00" departLane="free" departSpeed="max" fromTaz="tf-5_guajara" toTaz="tf-5_guajara" from="216650879" to="217553754"/>
    <trip id="9.2" depart="27.00" departLane="free" departSpeed="max" fromTaz="esperanza" toTaz="tf-5_anchieta" from="109573928#1" to="215803108"/>
    <trip id="29.23" depart="28.00" departLane="free" departSpeed="max" fromTaz="tf-5_anchieta" toTaz="tf-5_guajara" from="216243701" to="217553754"/>
    <trip id="35.23" depart="28.00" departLane="free" departSpeed="max" fromTaz="tf-5_guajara" toTaz="tf-5_anchieta" from="216650879" to="215803108"/>
    <trip id="12.2" depart="29.00" departLane="free" departSpeed="max" fromTaz="geneto" toTaz="astrofisico" from="-142470433#4" to="-217365458#0"/>
    <trip id="35.24" depart="29.00" departLane="free" departSpeed="max" fromTaz="tf-5_guajara" toTaz="tf-5_anchieta" from="216650879" to="215803108"/>
    <trip id="29.24" depart="30.00" departLane="free" departSpeed="max" fromTaz="tf-5_anchieta" toTaz="tf-5_guajara" from="216243701" to="217553754"/>
    <trip id="35.25" depart="30.00" departLane="free" departSpeed="max" fromTaz="tf-5_guajara" toTaz="tf-5_anchieta" from="216650879" to="215803108"/>
    <trip id="42.0" depart="30.00" departLane="free" departSpeed="max" fromTaz="trinidad" toTaz="tf-5_anchieta" from="217365460#0" to="215803108"/>
    <trip id="29.25" depart="31.00" departLane="free" departSpeed="max" fromTaz="tf-5_anchieta" toTaz="tf-5_guajara" from="216243701" to="217553754"/>
    <trip id="35.26" depart="31.00" departLane="free" departSpeed="max" fromTaz="tf-5_guajara" toTaz="tf-5_anchieta" from="216650879" to="215803108"/>
    <trip id="38.0" depart="31.00" departLane="free" departSpeed="max" fromTaz="trinidad" toTaz="astrofisico" from="217365460#0" to="-217365458#0"/>
    <trip id="7.0" depart="31.00" departLane="free" departSpeed="max" fromTaz="esperanza" toTaz="geneto" from="109573928#1" to="142470433#4"/>
    <trip id="9.3" depart="31.00" departLane="free" departSpeed="max" fromTaz="esperanza" toTaz="tf-5_anchieta" from="109573928#1" to="215803108"/>
    <trip id="29.26" depart="32.00" departLane="free" departSpeed="max" fromTaz="tf-5_anchieta" toTaz="tf-5_guajara" from="216243701" to="217553754"/>
    <trip id="35.27" depart="32.00" departLane="free" departSpeed="max" fromTaz="tf-5_guajara" toTaz="tf-5_anchieta" from="216650879" to="215803108"/>
    <trip id="29.27" depart="33.00" departLane="free" departSpeed="max" fromTaz="tf-5_anchieta" toTaz="tf-5_guajara" from="216243701" to="217553754"/>
    <trip id="35.28" depart="33.00" departLane="free" departSpeed="max" fromTaz="tf-5_guajara" toTaz="tf-5_anchieta" from="216650879" to="215803108"/>
    <trip id="29.28" depart="34.00" departLane="free" departSpeed="max" fromTaz="tf-5_anchieta" toTaz="tf-5_guajara" from="216243701" to="217553754"/>
    <trip id="29.29" depart="35.00" departLane="free" departSpeed="max" fromTaz="tf-5_anchieta" toTaz="tf-5_guajara" from="216243701" to="217553754"/>
    <trip id="35.29" depart="35.00" departLane="free" departSpeed="max" fromTaz="tf-5_guajara" toTaz="tf-5_anchieta" from="216650879" to="215803108"/>
    <trip id="12.3" depart="36.00" departLane="free" departSpeed="max" fromTaz="geneto" toTaz="astrofisico" from="-142470433#4" to="-217365458#0"/>
    <trip id="29.30" depart="36.00" departLane="free" departSpeed="max" fromTaz="tf-5_anchieta" toTaz="tf-5_guajara" from="216243701" to="217553754"/>
    <trip id="35.30" depart="36.00" departLane="free" departSpeed="max" fromTaz="tf-5_guajara" toTaz="tf-5_anchieta" from="216650879" to="215803108"/>
    <trip id="37.1" depart="36.00" departLane="free" departSpeed="max" fromTaz="tf-5_guajara" toTaz="trinidad" from="216650879" to="28490061#2"/>
    <trip id="37.2" depart="37.00" departLane="free" departSpeed="max" fromTaz="tf-5_guajara" toTaz="trinidad" from="216650879" to="28490061#2"/>
    <trip id="29.31" depart="38.00" departLane="free" departSpeed="max" fromTaz="tf-5_anchieta" toTaz="tf-5_guajara" from="216243701" to="217553754"/>
    <trip id="35.31" depart="38.00" departLane="free" departSpeed="max" fromTaz="tf-5_guajara" toTaz="tf-5_anchieta" from="216650879" to="215803108"/>
    <trip id="24.0" depart="39.00" departLane="free" departSpeed="max" fromTaz="tf-5_anchieta" toTaz="astrofisico" from="216243701" to="-217365458#0"/>
    <trip id="29.32" depart="39.00" departLane="free" departSpeed="max" fromTaz="tf-5_anchieta" toTaz="tf-5_guajara" from="216243701" to="217553754"/>
    <trip id="35.32" depart="39.00" departLane="free" departSpeed="max" fromTaz="tf-5_guajara" toTaz="tf-5_anchieta" from="216650879" to="215803108"/>
    <trip id="6.1" depart="39.00" departLane="free" departSpeed="max" fromTaz="esperanza" toTaz="astrofisico" from="109573928#1" to="-217365458#0"/>
    <trip id="1.2" depart="40.00" departLane="free" departSpeed="max" fromTaz="astrofisico" toTaz="geneto" from="358043015#3" to="142470433#4"/>
    <trip id="13.0" depart="40.00" departLane="free" departSpeed="max" fromTaz="geneto" toTaz="esperanza" from="-142470433#4" to="-109573928#1.8"/>
    <trip id="29.33" depart="40.00" departLane="free" departSpeed="max" fromTaz="tf-5_anchieta" toTaz="tf-5_guajara" from="216243701" to="217553754"/>
    <trip id="35.33" depart="40.00" departLane="free" departSpeed="max" fromTaz="tf-5_guajara" toTaz="tf-5_anchieta" from="216650879" to="215803108"/>
    <trip id="35.34" depart="41.00" departLane="free" departSpeed="max" fromTaz="tf-5_guajara" toTaz="tf-5_anchieta" from="216650879" to="215803108"/>
    <trip id="25.0" depart="42.00" departLane="free" departSpeed="max" fromTaz="tf-5_anchieta" toTaz="esperanza" from="216243701" to="-109573928#1.8"/>
    <trip id="28.0" depart="42.00" departLane="free" departSpeed="max" fromTaz="tf-5_anchieta" toTaz="tf-5_anchieta" from="216243701" to="215803108"/>
    <trip id="29.34" depart="42.00" departLane="free" departSpeed="max" fromTaz="tf-5_anchieta" toTaz="tf-5_guajara" from="216243701" to="217553754"/>
    <trip id="23.0" depart="43.00" departLane="free" departSpeed="max" fromTaz="incorp-tf5" toTaz="trinidad" from="80925648" to="28490061#2"/>
    <trip id="29.35" depart="43.00" departLane="free" departSpeed="max" fromTaz="tf-5_anchieta" toTaz="tf-5_guajara" from="216243701" to="217553754"/>
    <trip id="30.0" depart="43.00" departLane="free" departSpeed="max" fromTaz="tf-5_anchieta" toTaz="trinidad" from="216243701" to="28490061#2"/>
    <trip id="43.1" depart="43.00" departLane="free" departSpeed="max" fromTaz="trinidad" toTaz="tf-5_guajara" from="217365460#0" to="217553754"/>
    <trip id="29.36" depart="44.00" departLane="free" departSpeed="max" fromTaz="tf-5_anchieta" toTaz="tf-5_guajara" from="216243701" to="217553754"/>
    <trip id="35.35" depart="44.00" departLane="free" departSpeed="max" fromTaz="tf-5_guajara" toTaz="tf-5_anchieta" from="216650879" to="215803108"/>
    <trip id="36.1" depart="44.00" departLane="free" departSpeed="max" fromTaz="tf-5_guajara" toTaz="tf-5_guajara" from="216650879" to="217553754"/>
    <trip id="42.1" depart="44.00" departLane="free" departSpeed="max" fromTaz="trinidad" toTaz="tf-5_anchieta" from="217365460#0" to="215803108"/>
    <trip id="8.0" depart="44.00" departLane="free" departSpeed="max" fromTaz="esperanza" toTaz="guimera" from="109573928#1" to="142470423#2"/>
    <trip id="17.1" depart="45.00" departLane="free" departSpeed="max" fromTaz="geneto" toTaz="trinidad" from="-142470433#4" to="28490061#2"/>
    <trip id="20.0" depart="45.00" departLane="free" departSpeed="max" fromTaz="incorp-tf5" toTaz="geneto" from="80925648" to="142470433#4"/>
    <trip id="29.37" depart="45.00" departLane="free" departSpeed="max" fromTaz="tf-5_anchieta" toTaz="tf-5_guajara" from="216243701" to="217553754"/>
    <trip id="35.36" depart="45.00" departLane="free" departSpeed="max" fromTaz="tf-5_guajara" toTaz="tf-5_anchieta" from="216650879" to="215803108"/>
    <trip id="9.4" depart="45.00" departLane="free" departSpeed="max" fromTaz="esperanza" toTaz="tf-5_anchieta" from="109573928#1" to="215803108"/>
    <trip id="10.0" depart="46.00" departLane="free" departSpeed="max" fromTaz="esperanza" toTaz="tf-5_guajara" from="109573928#1" to="217553754"/>
    <trip id="29.38" depart="46.00" departLane="free" departSpeed="max" fromTaz="tf-5_anchieta" toTaz="tf-5_guajara" from="216243701" to="217553754"/>
    <trip id="17.2" depart="47.00" departLane="free" departSpeed="max" fromTaz="geneto" toTaz="trinidad" from="-142470433#4" to="28490061#2"/>
    <trip id="32.0" depart="47.00" departLane="free" departSpeed="max" fromTaz="tf-5_guajara" toTaz="esperanza" from="216650879" to="-109573928#1.8"/>
    <trip id="35.37" depart="47.00" departLane="free" departSpeed="max" fromTaz="tf-5_guajara" toTaz="tf-5_anchieta" from="216650879" to="215803108"/>
    <trip id="29.39" depart="48.00" departLane="free" departSpeed="max" fromTaz="tf-5_anchieta" toTaz="tf-5_guajara" from="216243701" to="217553754"/>
    <trip id="35.38" depart="48.00" departLane="free" departSpeed="max" fromTaz="tf-5_guajara" toTaz="tf-5_anchieta" from="216650879" to="215803108"/>
    <trip id="40.6" depart="48.00" departLane="free" departSpeed="max" fromTaz="trinidad" toTaz="geneto" from="217365460#0" to="142470433#4"/>
    <trip id="27.0" depart="49.00" departLane="free" departSpeed="max" fromTaz="tf-5_anchieta" toTaz="guimera" from="216243701" to="142470423#2"/>
    <trip id="29.40" depart="49.00" departLane="free" departSpeed="max" fromTaz="tf-5_anchieta" toTaz="tf-5_guajara" from="216243701" to="217553754"/>
    <trip id="35.39" depart="50.00" departLane="free" departSpeed="max" fromTaz="tf-5_guajara" toTaz="tf-5_anchieta" from="216650879" to="215803108"/>
    <trip id="43.2" depart="50.00" departLane="free" departSpeed="max" fromTaz="trinidad" toTaz="tf-5_guajara" from="217365460#0" to="217553754"/>
    <trip id="24.1" depart="51.00" departLane="free" departSpeed="max" fromTaz="tf-5_anchieta" toTaz="astrofisico" from="216243701" to="-217365458#0"/>
    <trip id="29.41" depart="51.00" departLane="free" departSpeed="max" fromTaz="tf-5_anchieta" toTaz="tf-5_guajara" from="216243701" to="217553754"/>
    <trip id="26.3" depart="52.00" departLane="free" departSpeed="max" fromTaz="tf-5_anchieta" toTaz="geneto" from="216243701" to="142470433#4"/>
    <trip id="29.42" depart="52.00" departLane="free" departSpeed="max" fromTaz="tf-5_anchieta" toTaz="tf-5_guajara" from="216243701" to="217553754"/>
    <trip id="35.40" depart="52.00" departLane="free" departSpeed="max" fromTaz="tf-5_guajara" toTaz="tf-5_anchieta" from="216650879" to="215803108"/>
    <trip id="23.1" depart="53.00" departLane="free" departSpeed="max" fromTaz="incorp-tf5" toTaz="trinidad" from="80925648" to="28490061#2"/>
    <trip id="24.2" depart="53.00" departLane="free" departSpeed="max" fromTaz="tf-5_anchieta" toTaz="astrofisico" from="216243701" to="-217365458#0"/>
    <trip id="29.43" depart="53.00" departLane="free" departSpeed="max" fromTaz="tf-5_anchieta" toTaz="tf-5_guajara" from="216243701" to="217553754"/>
    <trip id="35.41" depart="53.00" departLane="free" departSpeed="max" fromTaz="tf-5_guajara" toTaz="tf-5_anchieta" from="216650879" to="215803108"/>
    <trip id="6.2" depart="53.00" departLane="free" departSpeed="max" fromTaz="esperanza" toTaz="astrofisico" from="109573928#1" to="-217365458#0"/>
    <trip id="29.44" depart="54.00" departLane="free" departSpeed="max" fromTaz="tf-5_anchieta" toTaz="tf-5_guajara" from="216243701" to="217553754"/>
    <trip id="35.42" depart="54.00" departLane="free" departSpeed="max" fromTaz="tf-5_guajara" toTaz="tf-5_anchieta" from="216650879" to="215803108"/>
    <trip id="39.0" depart="54.00" departLane="free" departSpeed="max" fromTaz="trinidad" toTaz="esperanza" from="217365460#0" to="-109573928#1.8"/>
    <trip id="20.1" depart="55.00" departLane="free" departSpeed="max" fromTaz="incorp-tf5" toTaz="geneto" from="80925648" to="142470433#4"/>
    <trip id="24.3" depart="55.00" departLane="free" departSpeed="max" fromTaz="tf-5_anchieta" toTaz="astrofisico" from="216243701" to="-217365458#0"/>
    <trip id="29.45" depart="55.00" departLane="free" departSpeed="max" fromTaz="tf-5_anchieta" toTaz="tf-5_guajara" from="216243701" to="217553754"/>
    <trip id="35.43" depart="55.00" departLane="free" departSpeed="max" fromTaz="tf-5_guajara" toTaz="tf-5_anchieta" from="216650879" to="215803108"/>
    <trip id="29.46" depart="56.00" departLane="free" departSpeed="max" fromTaz="tf-5_anchieta" toTaz="tf-5_guajara" from="216243701" to="217553754"/>
    <trip id="35.44" depart="56.00" departLane="free" departSpeed="max" fromTaz="tf-5_guajara" toTaz="tf-5_anchieta" from="216650879" to="215803108"/>
    <trip id="38.1" depart="56.00" departLane="free" departSpeed="max" fromTaz="trinidad" toTaz="astrofisico" from="217365460#0" to="-217365458#0"/>
    <trip id="29.47" depart="57.00" departLane="free" departSpeed="max" fromTaz="tf-5_anchieta" toTaz="tf-5_guajara" from="216243701" to="217553754"/>
    <trip id="35.45" depart="57.00" departLane="free" departSpeed="max" fromTaz="tf-5_guajara" toTaz="tf-5_anchieta" from="216650879" to="215803108"/>
    <trip id="38.2" depart="57.00" departLane="free" departSpeed="max" fromTaz="trinidad" toTaz="astrofisico" from="217365460#0" to="-217365458#0"/>
    <trip id="29.48" depart="58.00" departLane="free" departSpeed="max" fromTaz="tf-5_anchieta" toTaz="tf-5_guajara" from="216243701" to="217553754"/>
    <trip id="35.46" depart="58.00" departLane="free" departSpeed="max" fromTaz="tf-5_guajara" toTaz="tf-5_anchieta" from="216650879" to="215803108"/>
    <trip id="4.0" depart="58.00" departLane="free" departSpeed="max" fromTaz="astrofisico" toTaz="tf-5_guajara" from="358043015#3" to="217553754"/>
    <trip id="29.49" depart="59.00" departLane="free" departSpeed="max" fromTaz="tf-5_anchieta" toTaz="tf-5_guajara" from="216243701" to="217553754"/>
    <trip id="35.47" depart="59.00" departLane="free" departSpeed="max" fromTaz="tf-5_guajara" toTaz="tf-5_anchieta" from="216650879" to="215803108"/>
    <trip id="25.1" depart="60.00" departLane="free" departSpeed="max" fromTaz="tf-5_anchieta" toTaz="esperanza" from="216243701" to="-109573928#1.8"/>
    <trip id="26.4" depart="60.00" departLane="free" departSpeed="max" fromTaz="tf-5_anchieta" toTaz="geneto" from="216243701" to="142470433#4"/>
    <trip id="29.50" depart="60.00" departLane="free" departSpeed="max" fromTaz="tf-5_anchieta" toTaz="tf-5_guajara" from="216243701" to="217553754"/>
    <trip id="38.3" depart="60.00" departLane="free" departSpeed="max" fromTaz="trinidad" toTaz="astrofisico" from="217365460#0" to="-217365458#0"/>
    <trip id="29.51" depart="61.00" departLane="free" departSpeed="max" fromTaz="tf-5_anchieta" toTaz="tf-5_guajara" from="216243701" to="217553754"/>
    <trip id="35.48" depart="61.00" departLane="free" departSpeed="max" fromTaz="tf-5_guajara" toTaz="tf-5_anchieta" from="216650879" to="215803108"/>
    <trip id="29.52" depart="62.00" departLane="free" departSpeed="max" fromTaz="tf-5_anchieta" toTaz="tf-5_guajara" from="216243701" to="217553754"/>
    <trip id="35.49" depart="62.00" departLane="free" departSpeed="max" fromTaz="tf-5_guajara" toTaz="tf-5_anchieta" from="216650879" to="215803108"/>
    <trip id="39.1" depart="62.00" departLane="free" departSpeed="max" fromTaz="trinidad" toTaz="esperanza" from="217365460#0" to="-109573928#1.8"/>
    <trip id="42.2" depart="62.00" departLane="free" departSpeed="max" fromTaz="trinidad" toTaz="tf-5_anchieta" from="217365460#0" to="215803108"/>
    <trip id="12.4" depart="63.00" departLane="free" departSpeed="max" fromTaz="geneto" toTaz="astrofisico" from="-142470433#4" to="-217365458#0"/>
    <trip id="35.50" depart="63.00" departLane="free" departSpeed="max" fromTaz="tf-5_guajara" toTaz="tf-5_anchieta" from="216650879" to="215803108"/>
    <trip id="28.1" depart="64.00" departLane="free" departSpeed="max" fromTaz="tf-5_anchieta" toTaz="tf-5_anchieta" from="216243701" to="215803108"/>
    <trip id="29.53" depart="64.00" departLane="free" departSpeed="max" fromTaz="tf-5_anchieta" toTaz="tf-5_guajara" from="216243701" to="217553754"/>
    <trip id="35.51" depart="64.00" departLane="free" departSpeed="max" fromTaz="tf-5_guajara" toTaz="tf-5_anchieta" from="216650879" to="215803108"/>
    <trip id="29.54" depart="65.00" departLane="free" departSpeed="max" fromTaz="tf-5_anchieta" toTaz="tf-5_guajara" from="216243701" to="217553754"/>
    <trip id="35.52" depart="65.00" departLane="free" departSpeed="max" fromTaz="tf-5_guajara" toTaz="tf-5_anchieta" from="216650879" to="215803108"/>
    <trip id="38.4" depart="65.00" departLane="free" departSpeed="max" fromTaz="trinidad" toTaz="astrofisico" from="217365460#0" to="-217365458#0"/>
    <trip id="29.55" depart="66.00" departLane="free" departSpeed="max" fromTaz="tf-5_anchieta" toTaz="tf-5_guajara" from="216243701" to="217553754"/>
    <trip id="31.0" depart="66.00" departLane="free" departSpeed="max" fromTaz="tf-5_guajara" toTaz="astrofisico" from="216650879" to="-217365458#0"/>
    <trip id="35.53" depart="66.00" departLane="free" departSpeed="max" fromTaz="tf-5_guajara" toTaz="tf-5_anchieta" from="216650879" to="215803108"/>
    <trip id="9.5" depart="66.00" departLane="free" departSpeed="max" fromTaz="esperanza" toTaz="tf-5_anchieta" from="109573928#1" to="215803108"/>
    <trip id="29.56" depart="67.00" departLane="free" departSpeed="max" fromTaz="tf-5_anchieta" toTaz="tf-5_guajara" from="216243701" to="217553754"/>
    <trip id="35.54" depart="67.00" departLane="free" departSpeed="max" fromTaz="tf-5_guajara" toTaz="tf-5_anchieta" from="216650879" to="215803108"/>
    <trip id="35.55" depart="68.00" departLane="free" departSpeed="max" fromTaz="tf-5_guajara" toTaz="tf-5_anchieta" from="216650879" to="215803108"/>
    <trip id="13.1" depart="69.00" departLane="free" departSpeed="max" fromTaz="geneto" toTaz="esperanza" from="-142470433#4" to="-109573928#1.8"/>
    <trip id="29.57" depart="69.00" departLane="free" departSpeed="max" fromTaz="tf-5_anchieta" toTaz="tf-5_guajara" from="216243701" to="217553754"/>
    <trip id="35.56" depart="69.00" departLane="free" departSpeed="max" fromTaz="tf-5_guajara" toTaz="tf-5_anchieta" from="216650879" to="215803108"/>