<?xml version="1.0" encoding="UTF-8"?>

<!-- generated on 04/19/20 17:49:03 by Eclipse SUMO duarouter Version 1.5.0
<configuration xmlns:xsi="http://www.w3.org/2001/XMLSchema-instance" xsi:noNamespaceSchemaLocation="http://sumo.dlr.de/xsd/duarouterConfiguration.xsd">

    <input>
        <net-file value="reduced_anchieta.net.xml"/>
        <route-files value="trips.trips.xml"/>
    </input>

    <output>
        <output-file value="reduced_anchieta.rou.xml"/>
        <alternatives-output value="reduced_anchieta.rou.alt.xml"/>
    </output>

    <time>
        <begin value="0"/>
        <end value="3600"/>
    </time>

    <report>
        <no-warnings value="true"/>
        <ignore-errors value="true"/>
        <no-step-log value="true"/>
    </report>

</configuration>
-->

<routes xmlns:xsi="http://www.w3.org/2001/XMLSchema-instance" xsi:noNamespaceSchemaLocation="http://sumo.dlr.de/xsd/routes_file.xsd">
    <vehicle id="5" depart="5.00">
        <route edges="216657562 216657562-AddedOffRampEdge 217553754"/>
    </vehicle>
    <vehicle id="6" depart="6.00">
        <route edges="217159012#0 217159012#1 216657574 449289363 62073503"/>
    </vehicle>
    <vehicle id="8" depart="8.00">
        <route edges="217159012#0 217159012#1 216657574 449289363 62073503"/>
    </vehicle>
    <vehicle id="9" depart="9.00">
        <route edges="215077545"/>
    </vehicle>
    <vehicle id="10" depart="10.00">
        <route edges="154607611 154607613#0 154607613#1 216268744 142470445 218891289 550301038 218745680 91731873#1 449288818#0 449288818#1 100829413 62073582 215077545 62073539 217159012#0 217159012#1 216657574 449289363 62073503"/>
    </vehicle>
    <vehicle id="11" depart="11.00">
        <route edges="217365458#1 217365458#2 142470465 218891289 550301038 218745680 217691393#0 217691393#1 215803157 216243708#1 220346965 154607611 154607613#0 154607613#1 216268744 142470461 -217365458#2 -217365458#1"/>
    </vehicle>
    <vehicle id="13" depart="13.00">
        <route edges="142470433#1 142470460#0 142470460#1 449288818#0 449288818#1 100829413 62073582 215077545 62073539 217159012#0 217159012#1 216657574 449289363 62073503 775363912 775363913 775381929 28306817 215803174#0 215803157 216243708#1 220346965 154607611 154607613#0 154607613#1 216268744 142470445 218891289 550301038"/>
    </vehicle>
    <vehicle id="15" depart="15.00">
        <route edges="62073503 775363912 775363913 775381929 28306817 215803174#0 215803157 216243708#1 220346965 154607611 154607613#0 154607613#1 216268744 142470445 218891289 550301038 218745680 217691393#0 217691393#1"/>
    </vehicle>
    <vehicle id="19" depart="19.00">
        <route edges="550301038 218745680 91731873#1 449288818#0 449288818#1"/>
    </vehicle>
    <vehicle id="20" depart="20.00">
        <route edges="216650879 100829420 216650898 775363913 775381929 28306817 215803174#0 215803157 216243708#1 220346965 154607611 154607613#0 154607613#1 216268744 142470445 218891289 550301038 218745680 91731873#1 449288818#0 449288818#1 100829413 62073582 215077545 62073539 217159012#0 217159012#1 216657574 216941948 62073441 -62073486 -62073582"/>
    </vehicle>
    <vehicle id="21" depart="21.00">
        <route edges="217159012#0 217159012#1 216657574 216941948 62073441 62073539"/>
    </vehicle>
    <vehicle id="24" depart="24.00">
        <route edges="216243708#1 220346965 154607611 154607613#0 154607613#1 216268744 142470445 218891289 550301038 142470433#1 142470433#2 142470433#3"/>
    </vehicle>
    <vehicle id="25" depart="25.00">
        <route edges="217691393#0 217691393#1 215803157 216243708#1 220346965 154607611 154607613#0 154607613#1 216268744 142470445 218891289 550301038 142470433#1"/>
    </vehicle>
    <vehicle id="27" depart="27.00">
        <route edges="216941948 62073536 217159012#0 217159012#1 216657574 449289363 62073503 775363912 775363913 775381929 28306817 215803174#0 215803157 216243708#1 220346965 154607611 154607613#0 154607613#1 216268744 142470445 218891289 550301038 218745680 91731873#1 449288818#0 449288818#1 100829406 217691379-AddedOnRampEdge 217691379"/>
    </vehicle>
    <vehicle id="31" depart="31.00">
        <route edges="154607613#1 216268744 142470445 218891289 550301038 218745680 91731873#1 449288818#0 449288818#1 100829406 217691379-AddedOnRampEdge 217691379 216657562 216657562-AddedOffRampEdge 449289872"/>
    </vehicle>
    <vehicle id="34" depart="34.00">
        <route edges="-142470433#2 -142470433#1 218745680"/>
    </vehicle>
    <vehicle id="35" depart="35.00">
        <route edges="62073441 62073539 217159012#0 217159012#1 216657574 449289363 62073503 775363912 775363913 775381929 28306817 215803174#0 215803157 159229344#0 159229344#0.2 142470423#0 142470423#1 142470423#2"/>
    </vehicle>
    <vehicle id="36" depart="36.00">
        <route edges="449289363 62073503 775363912 775363913 775381929 28306817 215803174#0 215803157 216243708#1 220346965 154607611 154607613#0 154607613#1 216268744 142470445 218891289 550301038 142470433#1 142470433#2 142470433#3 142470433#4"/>
    </vehicle>
    <vehicle id="37" depart="37.00">
        <route edges="100829413 62073582 215077545 62073539 217159012#0 217159012#1 216657574 449289363 62073503 775363912 775363913 775381929 28306817 215803174#0 215803157 216243708#1 220346965 154607611 154607613#0 154607613#1 216268744 142470461"/>
    </vehicle>
    <vehicle id="38" depart="38.00">
        <route edges="217365460#0 217365460#1 217365460#2 154607611 154607613#0 154607613#1 216268744 142470445 218891289 550301038 218745680 91731873#1 449288818#0 449288818#1 100829413 62073582 215077545 62073539 217159012#0"/>
    </vehicle>
    <vehicle id="39" depart="39.00">
        <route edges="-142470433#4 -142470433#3 -142470433#2 -142470433#1"/>
    </vehicle>
    <vehicle id="40" depart="40.00">
        <route edges="100829413 62073582 215077545 62073539 217159012#0 217159012#1 216657574 449289363 62073503 775363912 775363913 775381929 28306817 215803174#0 215803157 159229344#0 159229344#0.2 142470423#0"/>
    </vehicle>
    <vehicle id="41" depart="41.00">
        <route edges="216268744 142470445 218891289 550301038 142470433#1 142470433#2 142470433#3 142470433#4"/>
    </vehicle>
    <vehicle id="42" depart="42.00">
        <route edges="216243701 216243701-AddedOffRampEdge 100594724 359358942#0 359358942#1 216268744 142470445 218891289 550301038 218745680 91731873#1"/>
    </vehicle>
    <vehicle id="46" depart="46.00">
        <route edges="216268744 142470445 218891289 550301038 218745680 91731873#1 449288818#0 449288818#1 100829413 62073582"/>
    </vehicle>
    <vehicle id="48" depart="48.00">
        <route edges="215803157 216243708#1 220346965 154607611 154607613#0 154607613#1 216268744 142470445 218891289 550301038 218745680 91731873#1 449288818#0 449288818#1 100829406 217691379-AddedOnRampEdge 217691379 216657562 216657562-AddedOffRampEdge"/>
    </vehicle>
    <vehicle id="49" depart="49.00">
        <route edges="216650879 101005127 217912067 215803108"/>
    </vehicle>
    <vehicle id="53" depart="53.00">
        <route edges="449288818#1 100829406 217691379-AddedOnRampEdge 217691379 216657562 216657562-AddedOffRampEdge 217553754"/>
    </vehicle>
    <vehicle id="54" depart="54.00">
        <route edges="217365460#1 217365460#2 154607611 154607613#0 154607613#1 216268744 142470445 218891289 550301038 218745680 91731873#1 449288818#0 449288818#1 100829413 62073582 215077545 62073539 217159012#0 217159012#1 216657574 449289363 62073503 775363912 775363913"/>
    </vehicle>
    <vehicle id="55" depart="55.00">
        <route edges="62073582 215077545 62073539 217159012#0 217159012#1 216657574 449289363 62073503 775363912 775363913 775381929 28306817 215803174#0 215803157 216243708#1 220346965 154607611 28306819#0 28306819#1"/>
    </vehicle>
    <vehicle id="59" depart="59.00">
        <route edges="80925648 100829418 100829422 216650898 775363913 775381929 28306817 215803174#0 215803157 216243708#1 220346965 154607611 154607613#0 154607613#1 216268744 142470445 218891289 550301038 142470433#1"/>
    </vehicle>
    <vehicle id="60" depart="60.00">
        <route edges="62073441 62073539 217159012#0 217159012#1 216657574 449289363 62073503 775363912 775363913 775381929 28306817 215803174#0 215803157 216243708#1 220346965 154607611 154607613#0 154607613#1 216268744 142470445 218891289 550301038 218745680 91731873#1 449288818#0 449288818#1 100829406 217691379-AddedOnRampEdge"/>
    </vehicle>
    <vehicle id="62" depart="62.00">
        <route edges="91731873#1 449288818#0 449288818#1 100829413 62073582 215077545 62073539 217159012#0 217159012#1 216657574 449289363 62073503 775363912 775363913 775381929 28306817 215803174#0 215803157 216243708#1 220346965 154607611 154607613#0 154607613#1 216268744"/>
    </vehicle>
    <vehicle id="66" depart="66.00">
        <route edges="62073536 217159012#0 217159012#1 216657574 449289363 62073503 775363912 775363913 775381929 28306817 215803174#0 215803157 159229344#0 159229344#0.2 142470423#0"/>
    </vehicle>
    <vehicle id="72" depart="72.00">
        <route edges="91731873#1 449288818#0 449288818#1 100829413 62073582 215077545 62073539 217159012#0 217159012#1 216657574 449289363 62073503 775363912 775363913 775381929 28306817 215803174#0 215803157 216243708#1 220346965 154607611 154607613#0 154607613#1 216268744 142470445 218891289 550301038"/>
    </vehicle>
    <vehicle id="73" depart="73.00">
        <route edges="142470460#1 449288818#0 449288818#1 100829413 62073582 215077545 62073539 217159012#0 217159012#1 216657574 449289363 62073503 775363912 775363913 775381929 28306817 215803174#0 215803157 216243708#1 28490061#1 28490061#2"/>
    </vehicle>
    <vehicle id="74" depart="74.00">
        <route edges="449289363 62073503 775363912 775363913 775381929 28306817 215803174#0"/>
    </vehicle>
    <vehicle id="75" depart="75.00">
        <route edges="100829413 62073582 215077545 62073539 217159012#0 217159012#1 216657574 449289363 62073503 775363912 775363913 775381929 28306817 215803174#0 215803157 216243708#1 220346965 154607611 28306819#0 28306819#1"/>
    </vehicle>
    <vehicle id="78" depart="78.00">
        <route edges="216243708#1 220346965 154607611 154607613#0 154607613#1 216268744 142470445 218891289 550301038 218745680 91731873#1 449288818#0 449288818#1 100829413 62073582 215077545 62073539 217159012#0 217159012#1 216657574 216941948 62073441 -62073486"/>
    </vehicle>
    <vehicle id="80" depart="80.00">
        <route edges="62073539 217159012#0 217159012#1 216657574 449289363"/>
    </vehicle>
    <vehicle id="82" depart="82.00">
        <route edges="142470460#0 142470460#1 449288818#0 449288818#1 100829413 62073582 215077545 62073539 217159012#0 217159012#1 216657574 449289363 62073503 775363912 775363913 775381929 28306817 215803174#0 215803157 216243708#1 220346965 154607611 154607613#0 154607613#1 216268744 142470461"/>
    </vehicle>
    <vehicle id="83" depart="83.00">
        <route edges="216650879 101005127"/>
    </vehicle>
    <vehicle id="84" depart="84.00">
        <route edges="80925648 100829418 100829422 216650898 775363913 775381929 28306817 215803174#0 215803157 216243708#1 220346965 154607611 154607613#0 154607613#1 216268744 142470461 -217365458#2"/>
    </vehicle>
    <vehicle id="85" depart="85.00">
        <route edges="-142470433#2 142470460#0 142470460#1 449288818#0 449288818#1 100829406 217691379-AddedOnRampEdge 217691379 216657562 216657562-AddedOffRampEdge 449289872"/>
    </vehicle>
    <vehicle id="87" depart="87.00">
        <route edges="216243708#1 220346965 154607611 28306819#0 28306819#1"/>
    </vehicle>
    <vehicle id="89" depart="89.00">
        <route edges="216243701 216243701-AddedOffRampEdge 216243700 217691379-AddedOnRampEdge"/>
    </vehicle>
    <vehicle id="94" depart="94.00">
        <route edges="449289363 62073503 775363912 775363913 775381929 28306817 215803174#0 215803157 216243708#1 28490061#1 28490061#2"/>
    </vehicle>
    <vehicle id="98" depart="98.00">
        <route edges="217365460#2 154607611 154607613#0 154607613#1 216268744 142470445 218891289 550301038 218745680 91731873#1 449288818#0 449288818#1 100829413 62073582 215077545"/>
    </vehicle>
    <vehicle id="101" depart="101.00">
        <route edges="100829413 62073582 215077545 62073539 217159012#0 217159012#1 216657574 449289363 62073503 775363912 775363913 775381929 28306817 215803174#0 215803157 216243708#1 220346965 154607611 28306819#0 28306819#1 28306819#2 215803177 217912067 215803108"/>
    </vehicle>
    <vehicle id="103" depart="103.00">
        <route edges="100829413 62073582 215077545 62073539 217159012#0 217159012#1 216657574 449289363 62073503"/>
    </vehicle>
    <vehicle id="107" depart="107.00">
        <route edges="62073441 62073539 217159012#0 217159012#1 216657574 449289363 62073503 775363912 775363913 775381929 28306817 215803174#0 215803157 216243708#1"/>
    </vehicle>
    <vehicle id="108" depart="108.00">
        <route edges="100829418 100829422 216650898 775363913 775381929 28306817 215803174#0 215803157 159229344#0 159229344#0.2"/>
    </vehicle>
    <vehicle id="109" depart="109.00">
        <route edges="62073441 62073539 217159012#0 217159012#1 216657574 449289363 62073503 775363912 775363913 775381929 28306817 215803174#0 215803157 216243708#1 220346965 154607611 154607613#0 154607613#1 216268744 142470445 218891289 550301038 218745680 217691393#0 217691393#1"/>
    </vehicle>
    <vehicle id="110" depart="110.00">
        <route edges="80925648 100829418 100829422 216650898 775363913 775381929 28306817 215803174#0 215803157 216243708#1 220346965 154607611 154607613#0 154607613#1 216268744 142470445"/>
    </vehicle>
    <vehicle id="111" depart="111.00">
        <route edges="218891289 550301038 218745680 91731873#1 449288818#0 449288818#1 100829413 62073582 215077545 62073539 217159012#0 217159012#1"/>
    </vehicle>
    <vehicle id="112" depart="112.00">
        <route edges="216243701-AddedOffRampEdge 100594724 359358942#0 359358942#1 216268744 142470445 218891289 550301038 218745680 91731873#1 449288818#0 449288818#1 100829413 62073582 215077545 62073539 217159012#0 217159012#1 216657574"/>
    </vehicle>
    <vehicle id="113" depart="113.00">
        <route edges="28306817 215803174#0 215803157 216243708#1 220346965 154607611 154607613#0 154607613#1 216268744 142470445 218891289 550301038 142470433#1"/>
    </vehicle>
    <vehicle id="116" depart="116.00">
        <route edges="-142470433#2 -142470433#1 218745680 217691393#0 217691393#1 215803157 216243708#1 220346965 154607611 154607613#0 154607613#1 216268744 142470445 218891289 550301038 142470433#1 142470433#2"/>
    </vehicle>
    <vehicle id="117" depart="117.00">
        <route edges="216243701 216243701-AddedOffRampEdge 100594724 359358942#0 359358942#1 216268744 142470445 218891289 550301038 218745680 217691393#0 217691393#1 215803157 216243708#1 220346965 154607611 28306819#0 28306819#1 28306819#2 215803177 217912067"/>
    </vehicle>
    <vehicle id="119" depart="119.00">
        <route edges="216657574 449289363 62073503 775363912 775363913 775381929 28306817 215803174#0 215803157 216243708#1 220346965 154607611 154607613#0"/>
    </vehicle>
    <vehicle id="120" depart="120.00">
        <route edges="62073582 215077545 62073539 217159012#0 217159012#1 216657574 449289363 62073503 775363912 775363913 775381929 28306817 215803174#0 215803157 216243708#1 220346965 154607611 154607613#0 154607613#1 216268744 142470445 218891289 550301038 218745680 91731873#1 449288818#0 449288818#1 100829406 217691379-AddedOnRampEdge"/>
    </vehicle>
    <vehicle id="122" depart="122.00">
        <route edges="62073536 217159012#0 217159012#1 216657574 449289363 62073503 775363912 775363913 775381929 28306817 215803174#0"/>
    </vehicle>
    <vehicle id="124" depart="124.00">
        <route edges="215803174#0 215803157 216243708#1 220346965 154607611 154607613#0 154607613#1 216268744 142470445 218891289 550301038 142470433#1 142470460#0 142470460#1"/>
    </vehicle>
    <vehicle id="128" depart="128.00">
        <route edges="216243701 216243701-AddedOffRampEdge 100594724 359358942#0 359358942#1 216268744 142470445 218891289 550301038 218745680 217691393#0 217691393#1 215803157 216243708#1 220346965 154607611 28306819#0 28306819#1 28306819#2 215803177 217912067 215803108"/>
    </vehicle>
    <vehicle id="131" depart="131.00">
        <route edges="216243701-AddedOffRampEdge 100594724 359358942#0 359358942#1 216268744 142470445 218891289 550301038 218745680 217691393#0 217691393#1 215803157 159229344#0 159229344#0.2 142470423#0 142470423#1"/>
    </vehicle>
    <vehicle id="135" depart="135.00">
        <route edges="154607613#0 154607613#1 216268744 142470445 218891289 550301038 218745680 91731873#1 449288818#0 449288818#1 100829413 62073582 215077545 62073539 217159012#0 217159012#1 216657574 449289363 62073503 775363912 775363913"/>
    </vehicle>
    <vehicle id="140" depart="140.00">
        <route edges="100829420 216650898 775363913 775381929 28306817 215803174#0 215803157 216243708#1 220346965 154607611 154607613#0 154607613#1 216268744 142470445 218891289 550301038 218745680 91731873#1 449288818#0 449288818#1 100829413 62073582 215077545 62073539 217159012#0 217159012#1 216657574 449289363 62073503 775363912"/>
    </vehicle>
    <vehicle id="142" depart="142.00">
        <route edges="216941948 62073536 217159012#0 217159012#1 216657574 449289363 62073503 775363912 775363913 775381929 28306817"/>
    </vehicle>
    <vehicle id="143" depart="143.00">
        <route edges="359358942#0 359358942#1 216268744 142470445 218891289 550301038 218745680 217691393#0 217691393#1 215803157 216243708#1 220346965 154607611 28306819#0 28306819#1 28306819#2"/>
    </vehicle>
    <vehicle id="144" depart="144.00">
        <route edges="62073520 62073441"/>
    </vehicle>
    <vehicle id="145" depart="145.00">
        <route edges="215803157 216243708#1 220346965 154607611 154607613#0 154607613#1 216268744 142470445 218891289 550301038 142470433#1 142470433#2"/>
    </vehicle>
    <vehicle id="146" depart="146.00">
        <route edges="142470465 218891289 550301038 218745680 91731873#1 449288818#0 449288818#1 100829413 62073582 215077545 62073539 217159012#0 217159012#1 216657574"/>
    </vehicle>
    <vehicle id="147" depart="147.00">
        <route edges="359358942#1 216268744 142470445 218891289 550301038 218745680 91731873#1 449288818#0 449288818#1 100829406 217691379-AddedOnRampEdge 217691379"/>
    </vehicle>
    <vehicle id="148" depart="148.00">
        <route edges="217365458#1 217365458#2 142470465 218891289 550301038 218745680 217691393#0 217691393#1 215803157 216243708#1 220346965 154607611 28306819#0"/>
    </vehicle>
    <vehicle id="149" depart="149.00">
        <route edges="218891289 550301038 218745680 91731873#1 449288818#0 449288818#1 100829413 62073582 215077545 62073539 217159012#0 217159012#1 216657574 216941948 62073441 -62073486 -62073582 28708541"/>
    </vehicle>
    <vehicle id="150" depart="150.00">
        <route edges="775381929 28306817 215803174#0 215803157 216243708#1 28490061#1"/>
    </vehicle>
    <vehicle id="151" depart="151.00">
        <route edges="62073441 62073539 217159012#0 217159012#1 216657574 449289363 62073503 775363912 775363913 775381929 28306817 215803174#0 215803157 216243708#1 220346965"/>
    </vehicle>
    <vehicle id="153" depart="153.00">
        <route edges="62073441 62073539 217159012#0 217159012#1 216657574 449289363 62073503 775363912 775363913 775381929 28306817 215803174#0 215803157 216243708#1 220346965 154607611 154607613#0 154607613#1 216268744"/>
    </vehicle>
    <vehicle id="154" depart="154.00">
        <route edges="217159012#0 217159012#1 216657574 216941948 62073441 -62073486 -62073582 28708541 759746395"/>
    </vehicle>
    <vehicle id="155" depart="155.00">
        <route edges="775363913 775381929 28306817 215803174#0 215803157 159229344#0"/>
    </vehicle>
    <vehicle id="157" depart="157.00">
        <route edges="217691393#0 217691393#1 215803157 216243708#1 220346965 154607611 154607613#0 154607613#1 216268744 142470461 -217365458#2 -217365458#1"/>
    </vehicle>
    <vehicle id="158" depart="158.00">
        <route edges="217159012#1 216657574 449289363 62073503 775363912 775363913 775381929 28306817 215803174#0 215803157 216243708#1 220346965 154607611 154607613#0 154607613#1 216268744 142470445 218891289 550301038 142470433#1 142470433#2"/>
    </vehicle>
    <vehicle id="159" depart="159.00">
        <route edges="359358942#1 216268744 142470445 218891289 550301038 142470433#1"/>
    </vehicle>
    <vehicle id="163" depart="163.00">
        <route edges="358043015#3 217365458#1 217365458#2 142470465 218891289 550301038 218745680 91731873#1 449288818#0 449288818#1 100829406 217691379-AddedOnRampEdge 217691379 216657562"/>
    </vehicle>
    <vehicle id="164" depart="164.00">
        <route edges="449288818#0 449288818#1 100829413 62073582 215077545 62073539 217159012#0 217159012#1 216657574 449289363 62073503 775363912 775363913 775381929 28306817 215803174#0 215803157 159229344#0 159229344#0.2 142470423#0 142470423#1"/>
    </vehicle>
    <vehicle id="165" depart="165.00">
        <route edges="217159012#1 216657574 449289363 62073503 775363912 775363913 775381929 28306817 215803174#0 215803157 216243708#1"/>
    </vehicle>
    <vehicle id="166" depart="166.00">
        <route edges="200890620#1 28306819#2"/>
    </vehicle>
    <vehicle id="167" depart="167.00">
        <route edges="216941948 62073441 -62073486"/>
    </vehicle>
    <vehicle id="171" depart="171.00">
        <route edges="216650879 100829420 216650898 775363913 775381929 28306817 215803174#0 215803157 216243708#1 220346965 154607611 154607613#0 154607613#1 216268744 142470445 218891289 550301038 218745680 91731873#1 449288818#0 449288818#1 100829406"/>
    </vehicle>
    <vehicle id="172" depart="172.00">
        <route edges="142470460#0 142470460#1 449288818#0 449288818#1 100829413 62073582"/>
    </vehicle>
    <vehicle id="174" depart="174.00">
        <route edges="154607611 154607613#0 154607613#1 216268744 142470445"/>
    </vehicle>
    <vehicle id="177" depart="177.00">
        <route edges="91731873#1 449288818#0 449288818#1 100829406 217691379-AddedOnRampEdge"/>
    </vehicle>
    <vehicle id="179" depart="179.00">
        <route edges="-142470433#4 -142470433#3 -142470433#2 -142470433#1 218745680 217691393#0 217691393#1"/>
    </vehicle>
    <vehicle id="180" depart="180.00">
        <route edges="449289363 62073503 775363912 775363913 775381929 28306817 215803174#0 215803157 216243708#1 220346965 154607611 154607613#0 154607613#1 216268744 142470445 218891289 550301038 218745680 91731873#1 449288818#0 449288818#1 100829413 62073582 215077545 62073539"/>
    </vehicle>
    <vehicle id="182" depart="182.00">
        <route edges="62073582 215077545 62073539 217159012#0 217159012#1 216657574 449289363 62073503 775363912 775363913 775381929"/>
    </vehicle>
    <vehicle id="183" depart="183.00">
        <route edges="217691393#0 217691393#1 215803157 216243708#1 220346965 154607611 154607613#0 154607613#1 216268744 142470445 218891289 550301038 218745680 91731873#1 449288818#0 449288818#1 100829413 62073582 215077545 62073539 217159012#0 217159012#1 216657574 449289363"/>
    </vehicle>
    <vehicle id="184" depart="184.00">
        <route edges="154607613#1 216268744 142470445 218891289 550301038 218745680 91731873#1 449288818#0 449288818#1 100829413 62073582 215077545 62073539 217159012#0 217159012#1 216657574 216941948 62073441 -62073486"/>
    </vehicle>
    <vehicle id="185" depart="185.00">
        <route edges="100829418 100829422 216650898 775363913 775381929 28306817 215803174#0 215803157 216243708#1 220346965 154607611 28306819#0"/>
    </vehicle>
    <vehicle id="187" depart="187.00">
        <route edges="-142470433#4 -142470433#3 -142470433#2 142470460#0 142470460#1 449288818#0 449288818#1 100829406 217691379-AddedOnRampEdge 217691379"/>
    </vehicle>
    <vehicle id="189" depart="189.00">
        <route edges="217691393#1 215803157 216243708#1 220346965 154607611 154607613#0 154607613#1 216268744 142470445 218891289 550301038 218745680 91731873#1 449288818#0 449288818#1 100829413 62073582 215077545 62073539 217159012#0 217159012#1 216657574 216941948 62073441 -62073486"/>
    </vehicle>
    <vehicle id="190" depart="190.00">
        <route edges="142470465 218891289 550301038 218745680 217691393#0 217691393#1"/>
    </vehicle>
    <vehicle id="191" depart="191.00">
        <route edges="217691393#1 215803157 216243708#1 220346965 154607611 154607613#0 154607613#1"/>
    </vehicle>
    <vehicle id="192" depart="192.00">
        <route edges="358043015#3 217365458#1 217365458#2 142470465 218891289 550301038 218745680 91731873#1 449288818#0 449288818#1 100829413 62073582 215077545 62073539 217159012#0 217159012#1 216657574 449289363 62073503 775363912 775363913 775381929 28306817"/>
    </vehicle>
    <vehicle id="193" depart="193.00">
        <route edges="216268744 142470445 218891289 550301038 218745680 91731873#1 449288818#0 449288818#1"/>
    </vehicle>
    <vehicle id="194" depart="194.00">
        <route edges="215803157 216243708#1 220346965 154607611 154607613#0 154607613#1 216268744 142470445 218891289 550301038 218745680 91731873#1 449288818#0 449288818#1 100829413"/>
    </vehicle>
    <vehicle id="195" depart="195.00">
        <route edges="215077545 62073539 217159012#0 217159012#1 216657574 449289363 62073503 775363912 775363913 775381929 28306817 215803174#0 215803157 216243708#1 220346965 154607611 28306819#0 28306819#1 28306819#2"/>
    </vehicle>
    <vehicle id="196" depart="196.00">
        <route edges="775363912"/>
    </vehicle>
    <vehicle id="197" depart="197.00">
        <route edges="62073520 62073536 217159012#0 217159012#1 216657574 449289363 62073503 775363912 775363913 775381929 28306817 215803174#0 215803157 216243708#1 220346965 154607611 154607613#0 154607613#1 216268744 142470445 218891289 550301038 218745680 91731873#1 449288818#0 449288818#1 100829406 217691379-AddedOnRampEdge 217691379"/>
    </vehicle>
    <vehicle id="198" depart="198.00">
        <route edges="218891289 550301038 142470433#1 142470460#0"/>
    </vehicle>
    <vehicle id="199" depart="199.00">
        <route edges="216268744 142470445 218891289 550301038 218745680 91731873#1 449288818#0 449288818#1 100829406 217691379-AddedOnRampEdge 217691379 216657562 216657562-AddedOffRampEdge 449289872 759746395"/>
    </vehicle>
    <vehicle id="200" depart="200.00">
        <route edges="142470433#1 142470460#0 142470460#1 449288818#0 449288818#1 100829413 62073582 215077545 62073539 217159012#0 217159012#1 216657574 449289363 62073503 775363912 775363913 775381929 28306817 215803174#0 215803157 216243708#1 220346965 154607611 154607613#0"/>
    </vehicle>
    <vehicle id="205" depart="205.00">
        <route edges="100829420 216650898 775363913 775381929 28306817 215803174#0 215803157 159229344#0 159229344#0.2 142470423#0"/>
    </vehicle>
    <vehicle id="206" depart="206.00">
        <route edges="217159012#1 216657574 449289363 62073503 775363912 775363913 775381929 28306817 215803174#0 215803157 216243708#1 220346965 154607611 154607613#0 154607613#1 216268744 142470445 218891289 550301038 218745680 91731873#1 449288818#0 449288818#1 100829406 217691379-AddedOnRampEdge 217691379 216657562 216657562-AddedOffRampEdge 449289872"/>
    </vehicle>
    <vehicle id="207" depart="207.00">
        <route edges="142470445 218891289 550301038 218745680 91731873#1 449288818#0 449288818#1 100829413 62073582 215077545 62073539 217159012#0 217159012#1 216657574 449289363 62073503 775363912 775363913 775381929"/>
    </vehicle>
    <vehicle id="209" depart="209.00">
        <route edges="80925648 100829418 100829422 216650898 775363913 775381929 28306817 215803174#0 215803157 216243708#1 220346965 154607611 154607613#0 154607613#1 216268744 142470445 218891289 550301038 218745680 91731873#1 449288818#0 449288818#1 100829406 217691379-AddedOnRampEdge 217691379 216657562 216657562-AddedOffRampEdge 449289872"/>
    </vehicle>
    <vehicle id="210" depart="210.00">
        <route edges="220346965 154607611"/>
    </vehicle>
    <vehicle id="212" depart="212.00">
        <route edges="62073536 217159012#0 217159012#1 216657574 449289363 62073503 775363912 775363913 775381929 28306817 215803174#0 215803157 216243708#1 28490061#1"/>
    </vehicle>
    <vehicle id="213" depart="213.00">
        <route edges="358043015#3 217365458#1 217365458#2 142470465 218891289 550301038 218745680 91731873#1 449288818#0 449288818#1 100829406 217691379-AddedOnRampEdge 217691379 216657562 216657562-AddedOffRampEdge 449289872 759746395"/>
    </vehicle>
    <vehicle id="214" depart="214.00">
        <route edges="80925648 100829418 100829422 216650898 775363913 775381929 28306817 215803174#0 215803157 216243708#1 220346965 154607611 154607613#0 154607613#1 216268744 142470461 -217365458#2 -217365458#1 -217365458#0"/>
    </vehicle>
    <vehicle id="215" depart="215.00">
        <route edges="154607611 154607613#0 154607613#1 216268744 142470445 218891289 550301038 218745680 91731873#1 449288818#0 449288818#1 100829406 217691379-AddedOnRampEdge 217691379 216657562 216657562-AddedOffRampEdge 217553754"/>
    </vehicle>
    <vehicle id="216" depart="216.00">
        <route edges="449288818#0 449288818#1 100829413 62073582 215077545 62073539 217159012#0 217159012#1 216657574 449289363 62073503 775363912 775363913 775381929 28306817 215803174#0 215803157 216243708#1 220346965 154607611 154607613#0 154607613#1 216268744 142470445 218891289 550301038 142470433#1 142470433#2 142470433#3 142470433#4"/>
    </vehicle>
    <vehicle id="218" depart="218.00">