<?xml version="1.0" encoding="UTF-8"?>

<!-- generated on 04/19/20 21:36:04 by Eclipse SUMO duarouter Version 1.5.0
<configuration xmlns:xsi="http://www.w3.org/2001/XMLSchema-instance" xsi:noNamespaceSchemaLocation="http://sumo.dlr.de/xsd/duarouterConfiguration.xsd">

    <input>
        <net-file value="reduced_anchieta.net.xml"/>
        <route-files value="trips.trips.xml"/>
    </input>

    <output>
        <output-file value="reduced_anchieta.rou.xml"/>
        <alternatives-output value="reduced_anchieta.rou.alt.xml"/>
    </output>

    <time>
        <begin value="0"/>
        <end value="3600"/>
    </time>

    <report>
        <no-warnings value="true"/>
        <ignore-errors value="true"/>
        <no-step-log value="true"/>
    </report>

</configuration>
-->

<routes xmlns:xsi="http://www.w3.org/2001/XMLSchema-instance" xsi:noNamespaceSchemaLocation="http://sumo.dlr.de/xsd/routes_file.xsd">
    <vehicle id="1" depart="1.00">
        <route edges="80925648 100829418 100829422 216650898 775363913 775381929 28306817 215803174#0 215803157 216243708#1 220346965 154607611 154607613#0"/>
    </vehicle>
    <vehicle id="3" depart="3.00">
        <route edges="216268744 142470445 218891289 550301038 218745680 91731873#1 449288818#0 449288818#1 100829406 217691379-AddedOnRampEdge 217691379"/>
    </vehicle>
    <vehicle id="4" depart="4.00">
        <route edges="109573928#1 550301038 142470433#1 142470460#0"/>
    </vehicle>
    <vehicle id="5" depart="5.00">
        <route edges="217365460#1 217365460#2 154607611 154607613#0 154607613#1 216268744 142470445 218891289 550301038 218745680 91731873#1 449288818#0 449288818#1 100829413 62073582 215077545 62073539 217159012#0 217159012#1"/>
    </vehicle>
    <vehicle id="6" depart="6.00">
        <route edges="62073582 215077545 62073539 217159012#0 217159012#1 216657574 449289363 62073503 775363912 775363913 775381929 28306817 215803174#0 215803157 216243708#1 220346965 154607611 154607613#0 154607613#1 216268744 142470461"/>
    </vehicle>
    <vehicle id="9" depart="9.00">
        <route edges="-142470433#1 218745680 91731873#1 449288818#0 449288818#1 100829413 62073582 215077545"/>
    </vehicle>
    <vehicle id="10" depart="10.00">
        <route edges="217365458#1 217365458#2 142470465 218891289 550301038 142470433#1 142470460#0"/>
    </vehicle>
    <vehicle id="12" depart="12.00">
        <route edges="217365460#2 154607611 154607613#0 154607613#1 216268744 142470445 218891289 550301038 218745680 91731873#1 449288818#0"/>
    </vehicle>
    <vehicle id="13" depart="13.00">
        <route edges="217691393#1 215803157 216243708#1 220346965 154607611 28306819#0 28306819#1 28306819#2 215803177 217912067 215803108"/>
    </vehicle>
    <vehicle id="14" depart="14.00">
        <route edges="62073536 217159012#0 217159012#1 216657574 449289363 62073503 775363912 775363913 775381929 28306817 215803174#0 215803157 216243708#1 220346965 154607611 154607613#0 154607613#1 216268744 142470445 218891289 550301038 142470433#1 142470433#2 142470433#3"/>
    </vehicle>
    <vehicle id="16" depart="16.00">
        <route edges="217691393#1 215803157 216243708#1 220346965 154607611 28306819#0 28306819#1 28306819#2 215803177 217912067 215803108"/>
    </vehicle>
    <vehicle id="19" depart="19.00">
        <route edges="218745680 217691393#0 217691393#1 215803157 159229344#0 159229344#0.2 142470423#0 142470423#1"/>
    </vehicle>
    <vehicle id="22" depart="22.00">
        <route edges="91731873#1 449288818#0 449288818#1 100829413 62073582 215077545 62073539 217159012#0 217159012#1 216657574 449289363 62073503 775363912 775363913 775381929 28306817 215803174#0 215803157 216243708#1 220346965 154607611 154607613#0 154607613#1 216268744 142470445"/>
    </vehicle>
    <vehicle id="23" depart="23.00">
        <route edges="358043015#3 217365458#1 217365458#2 142470465 218891289 550301038 218745680 91731873#1 449288818#0 449288818#1 100829413 62073582 215077545 62073539 217159012#0 217159012#1 216657574 216941948 62073441 -62073486 -62073582"/>
    </vehicle>
    <vehicle id="24" depart="24.00">
        <route edges="217691393#0 217691393#1 215803157 216243708#1 220346965 154607611 154607613#0 154607613#1 216268744 142470445 218891289 550301038 218745680 91731873#1 449288818#0 449288818#1 100829406 217691379-AddedOnRampEdge"/>
    </vehicle>
    <vehicle id="26" depart="26.00">
        <route edges="217365458#2 142470465 218891289 550301038 218745680 217691393#0 217691393#1 215803157 216243708#1 220346965 154607611 28306819#0 28306819#1 28306819#2 215803177 217912067"/>
    </vehicle>
    <vehicle id="27" depart="27.00">
        <route edges="216268744 142470445 218891289 550301038 218745680 217691393#0"/>
    </vehicle>
    <vehicle id="28" depart="28.00">
        <route edges="217159012#1 216657574 449289363 62073503 775363912 775363913 775381929 28306817 215803174#0 215803157 216243708#1 220346965 154607611 154607613#0 154607613#1 216268744 142470445 218891289"/>
    </vehicle>
    <vehicle id="31" depart="31.00">
        <route edges="216657574 449289363 62073503 775363912 775363913 775381929"/>
    </vehicle>
    <vehicle id="32" depart="32.00">
        <route edges="62073520 62073536 217159012#0 217159012#1 216657574 449289363 62073503 775363912 775363913 775381929 28306817 215803174#0 215803157 216243708#1 220346965 154607611 154607613#0 154607613#1 216268744 142470445 218891289 550301038 218745680 91731873#1 449288818#0 449288818#1 100829406"/>
    </vehicle>
    <vehicle id="34" depart="34.00">
        <route edges="216657574 449289363 62073503 775363912 775363913 775381929 28306817 215803174#0 215803157 216243708#1 220346965 154607611 28306819#0 28306819#1 28306819#2 215803177 217912067"/>
    </vehicle>
    <vehicle id="35" depart="35.00">
        <route edges="216657574 216941948 62073441 -62073486 -62073582"/>
    </vehicle>
    <vehicle id="36" depart="36.00">
        <route edges="217365458#1 217365458#2 142470465 218891289 550301038 218745680 91731873#1 449288818#0 449288818#1 100829406 217691379-AddedOnRampEdge 217691379"/>
    </vehicle>
    <vehicle id="37" depart="37.00">
        <route edges="217365460#0 25567763#0 200890620#0 200890620#1"/>
    </vehicle>
    <vehicle id="40" depart="40.00">
        <route edges="216657574 449289363 62073503 775363912 775363913 775381929 28306817 215803174#0"/>
    </vehicle>
    <vehicle id="43" depart="43.00">
        <route edges="100829413 62073582 215077545 62073539 217159012#0 217159012#1 216657574 449289363 62073503 775363912 775363913 775381929 28306817 215803174#0 215803157 216243708#1 220346965 154607611 28306819#0 28306819#1 28306819#2 215803177 217912067"/>
    </vehicle>
    <vehicle id="46" depart="46.00">
        <route edges="80925648 100829418 100829422 216650898 775363913 775381929 28306817 215803174#0 215803157 216243708#1 220346965 154607611 154607613#0 154607613#1 216268744 142470445 218891289 550301038 142470433#1 142470433#2"/>
    </vehicle>
    <vehicle id="52" depart="52.00">
        <route edges="62073582 215077545 62073539 217159012#0 217159012#1 216657574 449289363 62073503 775363912 775363913 775381929 28306817 215803174#0 215803157 216243708#1 220346965 154607611 154607613#0 154607613#1 216268744 142470445 218891289 550301038 218745680 91731873#1 449288818#0 449288818#1 100829406 217691379-AddedOnRampEdge 217691379 216657562 216657562-AddedOffRampEdge 449289872"/>
    </vehicle>
    <vehicle id="53" depart="53.00">
        <route edges="100829413 62073582 215077545 62073539 217159012#0 217159012#1 216657574 449289363 62073503 775363912"/>
    </vehicle>
    <vehicle id="56" depart="56.00">
        <route edges="216650879 100829420 216650898 775363913 775381929 28306817 215803174#0 215803157 216243708#1 220346965 154607611 28306819#0 28306819#1 28306819#2 215803177"/>
    </vehicle>
    <vehicle id="57" depart="57.00">
        <route edges="142470445 218891289 550301038 218745680 91731873#1 449288818#0 449288818#1 100829413 62073582 215077545 62073539 217159012#0 217159012#1 216657574"/>
    </vehicle>
    <vehicle id="58" depart="58.00">
        <route edges="449288818#0 449288818#1 100829406 217691379-AddedOnRampEdge 217691379 216657562 216657562-AddedOffRampEdge 217553754"/>
    </vehicle>
    <vehicle id="60" depart="60.00">
        <route edges="-142470433#1 218745680 217691393#0 217691393#1 215803157 159229344#0 159229344#0.2 142470423#0 142470423#1"/>
    </vehicle>
    <vehicle id="67" depart="67.00">
        <route edges="218891289 550301038 218745680 91731873#1 449288818#0"/>
    </vehicle>
    <vehicle id="68" depart="68.00">
        <route edges="449289363 62073503 775363912 775363913 775381929 28306817 215803174#0 215803157 216243708#1 220346965 154607611 154607613#0 154607613#1 216268744 142470445 218891289 550301038 218745680 91731873#1 449288818#0 449288818#1 100829413 62073582 215077545 62073539 217159012#0 217159012#1 216657574 216941948 62073441 -62073486 -62073582 28708541"/>
    </vehicle>
    <vehicle id="71" depart="71.00">
        <route edges="775363912 775363913 775381929 28306817 215803174#0 215803157 216243708#1 220346965 154607611 154607613#0 154607613#1 216268744 142470445 218891289 550301038 218745680 91731873#1 449288818#0 449288818#1 100829406 217691379-AddedOnRampEdge 217691379 216657562 216657562-AddedOffRampEdge"/>
    </vehicle>
    <vehicle id="73" depart="73.00">
        <route edges="100594724 359358942#0 359358942#1 216268744 142470445 218891289 550301038 218745680 91731873#1 449288818#0 449288818#1 100829413"/>
    </vehicle>
    <vehicle id="76" depart="76.00">
        <route edges="217159012#0 217159012#1 216657574 449289363 62073503 775363912 775363913 775381929 28306817 215803174#0 215803157 216243708#1 220346965 154607611 154607613#0 154607613#1 216268744 142470445 218891289 550301038 218745680 91731873#1 449288818#0 449288818#1 100829406 217691379-AddedOnRampEdge 217691379 216657562"/>
    </vehicle>
    <vehicle id="77" depart="77.00">
        <route edges="-142470433#3 -142470433#2 142470460#0 142470460#1 449288818#0 449288818#1 100829413 62073582 215077545 62073539 217159012#0 217159012#1 216657574 216941948 62073441 -62073486 -62073582"/>
    </vehicle>
    <vehicle id="81" depart="81.00">
        <route edges="142470433#1 142470460#0 142470460#1 449288818#0 449288818#1 100829413 62073582 215077545 62073539 217159012#0 217159012#1 216657574 449289363 62073503 775363912 775363913 775381929 28306817 215803174#0 215803157 216243708#1 220346965 154607611 28306819#0 28306819#1 28306819#2 215803177"/>
    </vehicle>
    <vehicle id="82" depart="82.00">
        <route edges="359358942#0 359358942#1 216268744 142470445 218891289 550301038 218745680 217691393#0 217691393#1 215803157 216243708#1 220346965 154607611 28306819#0 28306819#1 28306819#2 215803177"/>
    </vehicle>
    <vehicle id="84" depart="84.00">
        <route edges="775363913 775381929 28306817 215803174#0 215803157 216243708#1 220346965 154607611 28306819#0 28306819#1"/>
    </vehicle>
    <vehicle id="86" depart="86.00">
        <route edges="218891289 550301038 218745680 91731873#1 449288818#0 449288818#1 100829406 217691379-AddedOnRampEdge 217691379 216657562 216657562-AddedOffRampEdge"/>
    </vehicle>
    <vehicle id="87" depart="87.00">
        <route edges="216650898 775363913 775381929 28306817 215803174#0 215803157 216243708#1 220346965 154607611 154607613#0 154607613#1 216268744 142470461 -217365458#2"/>
    </vehicle>
    <vehicle id="88" depart="88.00">
        <route edges="142470433#1 142470460#0 142470460#1 449288818#0 449288818#1 100829413 62073582 215077545 62073539 217159012#0 217159012#1 216657574 216941948 62073441 -62073486 -62073582"/>
    </vehicle>
    <vehicle id="90" depart="90.00">
        <route edges="62073441 62073539 217159012#0 217159012#1 216657574 449289363 62073503 775363912 775363913 775381929 28306817 215803174#0 215803157 159229344#0 159229344#0.2"/>
    </vehicle>
    <vehicle id="91" depart="91.00">
        <route edges="-142470433#4 -142470433#3 -142470433#2 -142470433#1 218745680 217691393#0 217691393#1 215803157 159229344#0 159229344#0.2 142470423#0 142470423#1"/>
    </vehicle>
    <vehicle id="92" depart="92.00">
        <route edges="215803174#0 215803157 216243708#1 220346965 154607611 154607613#0 154607613#1"/>
    </vehicle>
    <vehicle id="95" depart="95.00">
        <route edges="62073536 217159012#0 217159012#1 216657574 449289363 62073503 775363912 775363913 775381929 28306817 215803174#0 215803157 216243708#1 220346965 154607611 154607613#0 154607613#1 216268744 142470461 -217365458#2 -217365458#1"/>
    </vehicle>
    <vehicle id="96" depart="96.00">
        <route edges="-142470433#2 -142470433#1 218745680 217691393#0"/>
    </vehicle>
    <vehicle id="98" depart="98.00">
        <route edges="217691393#1 215803157 216243708#1 220346965 154607611 154607613#0 154607613#1 216268744 142470445 218891289 550301038 218745680 91731873#1 449288818#0 449288818#1 100829406 217691379-AddedOnRampEdge 217691379 216657562 216657562-AddedOffRampEdge"/>
    </vehicle>
    <vehicle id="99" depart="99.00">
        <route edges="217365460#0 217365460#1 217365460#2 154607611 154607613#0 154607613#1 216268744 142470445 218891289 550301038 218745680 217691393#0 217691393#1"/>
    </vehicle>
    <vehicle id="101" depart="101.00">
        <route edges="220346965 154607611 154607613#0 154607613#1 216268744 142470445 218891289 550301038 218745680 217691393#0 217691393#1"/>
    </vehicle>
    <vehicle id="102" depart="102.00">
        <route edges="101005127 101005127.945 217912067"/>
    </vehicle>
    <vehicle id="103" depart="103.00">
        <route edges="216650898 775363913 775381929 28306817 215803174#0 215803157 216243708#1 220346965 154607611 28306819#0 28306819#1 28306819#2 215803177 217912067"/>
    </vehicle>
    <vehicle id="105" depart="105.00">
        <route edges="449288818#0 449288818#1 100829413 62073582 215077545 62073539 217159012#0 217159012#1 216657574 449289363 62073503 775363912 775363913 775381929 28306817 215803174#0 215803157 216243708#1 220346965 154607611 154607613#0 154607613#1 216268744 142470445 218891289 550301038"/>
    </vehicle>
    <vehicle id="106" depart="106.00">
        <route edges="62073539 217159012#0 217159012#1 216657574 449289363 62073503 775363912 775363913 775381929 28306817 215803174#0 215803157 216243708#1 220346965 154607611"/>
    </vehicle>
    <vehicle id="108" depart="108.00">
        <route edges="359358942#1 216268744 142470445 218891289 550301038 218745680 217691393#0 217691393#1 215803157 159229344#0 159229344#0.2 142470423#0"/>
    </vehicle>
    <vehicle id="109" depart="109.00">
        <route edges="217365460#1 217365460#2 154607611 28306819#0 28306819#1 28306819#2 215803177 217912067"/>
    </vehicle>
    <vehicle id="112" depart="112.00">
        <route edges="142470460#1 449288818#0 449288818#1 100829413 62073582 215077545 62073539 217159012#0 217159012#1 216657574 449289363 62073503 775363912 775363913 775381929 28306817 215803174#0 215803157 216243708#1 220346965 154607611 154607613#0 154607613#1 216268744 142470445 218891289 550301038 142470433#1 142470433#2 142470433#3"/>
    </vehicle>
    <vehicle id="113" depart="113.00">
        <route edges="359358942#1 216268744 142470461 -217365458#2"/>
    </vehicle>
    <vehicle id="114" depart="114.00">
        <route edges="217365458#2 142470465 218891289 550301038 218745680 91731873#1 449288818#0 449288818#1 100829413 62073582 215077545 62073539 217159012#0 217159012#1 216657574 216941948 62073441 -62073486 -62073582 28708541"/>
    </vehicle>
    <vehicle id="119" depart="119.00">
        <route edges="216650879 100829420 216650898 775363913 775381929 28306817 215803174#0 215803157 216243708#1 220346965 154607611 154607613#0 154607613#1 216268744 142470445 218891289 550301038 218745680 91731873#1 449288818#0 449288818#1 100829413 62073582 215077545 62073539 217159012#0 217159012#1 216657574"/>
    </vehicle>
    <vehicle id="121" depart="121.00">
        <route edges="216243701 216243701-AddedOffRampEdge 100594724 359358942#0 359358942#1 216268744 142470445 218891289 550301038 218745680 91731873#1 449288818#0 449288818#1 100829413 62073582 215077545 62073539 217159012#0 217159012#1 216657574 449289363"/>
    </vehicle>
    <vehicle id="125" depart="125.00">
        <route edges="62073503 775363912 775363913 775381929 28306817 215803174#0 215803157 216243708#1 220346965 154607611 154607613#0 154607613#1 216268744 142470445 218891289 550301038 218745680 91731873#1 449288818#0 449288818#1 100829413 62073582"/>
    </vehicle>
    <vehicle id="128" depart="128.00">
        <route edges="28306817 215803174#0 215803157 216243708#1 220346965 154607611 154607613#0 154607613#1 216268744 142470461 -217365458#2"/>
    </vehicle>
    <vehicle id="130" depart="130.00">
        <route edges="-142470433#3 -142470433#2 142470460#0 142470460#1 449288818#0 449288818#1 100829413 62073582 215077545 62073539 217159012#0 217159012#1 216657574 449289363 62073503 775363912"/>
    </vehicle>
    <vehicle id="132" depart="132.00">
        <route edges="154607613#1 216268744 142470445 218891289 550301038 218745680 91731873#1 449288818#0 449288818#1 100829406 217691379-AddedOnRampEdge"/>
    </vehicle>
    <vehicle id="134" depart="134.00">
        <route edges="154607613#0 154607613#1 216268744 142470445 218891289 550301038 142470433#1 142470433#2 142470433#3 142470433#4"/>
    </vehicle>
    <vehicle id="137" depart="137.00">
        <route edges="216268744 142470445 218891289 550301038 218745680 217691393#0 217691393#1 215803157 159229344#0 159229344#0.2"/>
    </vehicle>
    <vehicle id="141" depart="141.00">
        <route edges="217691393#1 215803157 216243708#1 220346965 154607611 154607613#0 154607613#1 216268744 142470445 218891289 -109573928#1.8"/>
    </vehicle>
    <vehicle id="146" depart="146.00">
        <route edges="550301038 218745680 91731873#1 449288818#0 449288818#1 100829413 62073582 215077545 62073539 217159012#0 217159012#1 216657574 216941948 62073441"/>
    </vehicle>
    <vehicle id="149" depart="149.00">
        <route edges="154607613#0 154607613#1 216268744 142470445 218891289 550301038 218745680 91731873#1 449288818#0 449288818#1"/>
    </vehicle>
    <vehicle id="150" depart="150.00">
        <route edges="216243701-AddedOffRampEdge 100594724 359358942#0 359358942#1 216268744 142470461 -217365458#2 -217365458#1 -217365458#0"/>
    </vehicle>
    <vehicle id="152" depart="152.00">
        <route edges="142470460#0 142470460#1 449288818#0 449288818#1 100829406"/>
    </vehicle>
    <vehicle id="153" depart="153.00">
        <route edges="-142470433#4 -142470433#3 -142470433#2 142470460#0 142470460#1 449288818#0 449288818#1 100829406 217691379-AddedOnRampEdge 217691379 216657562 216657562-AddedOffRampEdge 449289872"/>
    </vehicle>
    <vehicle id="154" depart="154.00">
        <route edges="217159012#0 217159012#1 216657574 449289363 62073503 775363912 775363913 775381929 28306817 215803174#0 215803157 216243708#1 220346965 154607611 154607613#0 154607613#1 216268744 142470445 218891289 550301038 218745680 91731873#1 449288818#0 449288818#1 100829406 217691379-AddedOnRampEdge 217691379 216657562 216657562-AddedOffRampEdge 449289872"/>
    </vehicle>
    <vehicle id="156" depart="156.00">
        <route edges="62073441 62073539 217159012#0 217159012#1 216657574 449289363 62073503 775363912 775363913 775381929 28306817 215803174#0 215803157 216243708#1 220346965"/>
    </vehicle>
    <vehicle id="157" depart="157.00">
        <route edges="215803174#0 215803157 159229344#0 159229344#0.2 142470423#0 142470423#1"/>
    </vehicle>
    <vehicle id="158" depart="158.00">
        <route edges="216657562-AddedOffRampEdge 217553754"/>
    </vehicle>
    <vehicle id="160" depart="160.00">
        <route edges="217159012#1 216657574 449289363 62073503 775363912 775363913 775381929 28306817 215803174#0 215803157"/>
    </vehicle>
    <vehicle id="161" depart="161.00">
        <route edges="216243701-AddedOffRampEdge 100594724 359358942#0 359358942#1 216268744 142470445 218891289 550301038 218745680 91731873#1 449288818#0 449288818#1 100829413 62073582 215077545 62073539 217159012#0 217159012#1 216657574 449289363 62073503 775363912 775363913 775381929"/>
    </vehicle>
    <vehicle id="165" depart="165.00">
        <route edges="109573928#1 550301038 218745680 217691393#0 217691393#1 215803157 159229344#0 159229344#0.2 142470423#0"/>
    </vehicle>
    <vehicle id="168" depart="168.00">
        <route edges="217159012#0 217159012#1 216657574 449289363 62073503 775363912"/>
    </vehicle>
    <vehicle id="169" depart="169.00">
        <route edges="217159012#0 217159012#1 216657574 449289363 62073503 775363912 775363913 775381929 28306817 215803174#0 215803157 216243708#1 220346965 154607611 154607613#0 154607613#1 216268744 142470445 218891289 550301038 218745680 91731873#1 449288818#0 449288818#1 100829406"/>
    </vehicle>
    <vehicle id="170" depart="170.00">
        <route edges="62073582 215077545 62073539 217159012#0 217159012#1 216657574 449289363 62073503 775363912 775363913 775381929 28306817 215803174#0 215803157 216243708#1 220346965 154607611 154607613#0 154607613#1"/>
    </vehicle>
    <vehicle id="171" depart="171.00">
        <route edges="216268744 142470445 218891289 550301038 218745680 91731873#1 449288818#0 449288818#1 100829413 62073582 215077545 62073539 217159012#0 217159012#1 216657574 216941948 62073441 -62073486 -62073582 28708541"/>
    </vehicle>
    <vehicle id="174" depart="174.00">
        <route edges="159229344#0 159229344#0.2 142470423#0 142470423#1"/>
    </vehicle>
    <vehicle id="175" depart="175.00">
        <route edges="220346965 154607611 154607613#0 154607613#1 216268744 142470445 218891289 550301038 218745680 91731873#1 449288818#0 449288818#1 100829413 62073582"/>
    </vehicle>
    <vehicle id="176" depart="176.00">
        <route edges="449288818#0 449288818#1 100829413 62073582 215077545 62073539 217159012#0 217159012#1 216657574 449289363 62073503 775363912 775363913 775381929 28306817 215803174#0 215803157 216243708#1 28490061#1"/>
    </vehicle>
    <vehicle id="179" depart="179.00">
        <route edges="218745680 217691393#0 217691393#1 215803157"/>
    </vehicle>
    <vehicle id="181" depart="181.00">
        <route edges="217365460#1 217365460#2 154607611 154607613#0 154607613#1 216268744 142470445 218891289 550301038 218745680 91731873#1 449288818#0 449288818#1 100829413 62073582 215077545 62073539 217159012#0 217159012#1 216657574 449289363"/>
    </vehicle>
    <vehicle id="184" depart="184.00">
        <route edges="142470460#0 142470460#1 449288818#0 449288818#1 100829406"/>
    </vehicle>
    <vehicle id="185" depart="185.00">
        <route edges="449288818#1 100829413 62073582 215077545 62073539 217159012#0 217159012#1 216657574 449289363 62073503 775363912 775363913 775381929 28306817 215803174#0 215803157 216243708#1 220346965 154607611 154607613#0 154607613#1 216268744 142470445 218891289 550301038 142470433#1 142470460#0 142470460#1"/>
    </vehicle>
    <vehicle id="186" depart="186.00">
        <route edges="62073441 62073539 217159012#0 217159012#1 216657574 449289363 62073503 775363912 775363913 775381929 28306817 215803174#0 215803157 216243708#1 220346965 154607611"/>
    </vehicle>
    <vehicle id="188" depart="188.00">
        <route edges="100594724"/>
    </vehicle>
    <vehicle id="189" depart="189.00">
        <route edges="216650898 775363913 775381929 28306817 215803174#0 215803157 216243708#1 220346965 154607611 154607613#0 154607613#1 216268744 142470445 218891289 550301038 218745680 91731873#1 449288818#0 449288818#1 100829413 62073582 215077545 62073539 217159012#0 217159012#1 216657574 216941948"/>
    </vehicle>
    <vehicle id="193" depart="193.00">
        <route edges="215077545 62073539 217159012#0 217159012#1 216657574 449289363 62073503 775363912 775363913 775381929 28306817 215803174#0 215803157 159229344#0 159229344#0.2 142470423#0 142470423#1 142470423#2"/>
    </vehicle>
    <vehicle id="194" depart="194.00">
        <route edges="220346965 154607611 154607613#0 154607613#1 216268744 142470445 218891289 550301038 218745680 91731873#1 449288818#0 449288818#1 100829413 62073582 215077545"/>
    </vehicle>
    <vehicle id="196" depart="196.00">
        <route edges="550301038 218745680 217691393#0 217691393#1 215803157 216243708#1 220346965 154607611 154607613#0 154607613#1 216268744 142470461 -217365458#2"/>
    </vehicle>
    <vehicle id="198" depart="198.00">
        <route edges="550301038 218745680 91731873#1 449288818#0 449288818#1 100829413 62073582 215077545 62073539 217159012#0 217159012#1 216657574"/>
    </vehicle>
    <vehicle id="199" depart="199.00">
        <route edges="154607613#0 154607613#1 216268744 142470445 218891289 550301038 142470433#1"/>
    </vehicle>
    <vehicle id="200" depart="200.00">
        <route edges="154607613#1 216268744 142470445 218891289 550301038 218745680 217691393#0 217691393#1 215803157 159229344#0 159229344#0.2"/>
    </vehicle>
    <vehicle id="203" depart="203.00">
        <route edges="100594724 359358942#0 359358942#1 216268744 142470445 218891289 550301038 218745680 91731873#1 449288818#0 449288818#1"/>
    </vehicle>
    <vehicle id="204" depart="204.00">
        <route edges="775381929 28306817 215803174#0 215803157 216243708#1 220346965 154607611 28306819#0"/>
    </vehicle>
    <vehicle id="205" depart="205.00">
        <route edges="775363913 775381929 28306817 215803174#0 215803157 216243708#1 220346965 154607611 154607613#0 154607613#1 216268744 142470445 218891289 550301038 142470433#1"/>
    </vehicle>
    <vehicle id="208" depart="208.00">
        <route edges="217365460#0 217365460#1 217365460#2 154607611 154607613#0 154607613#1 216268744 142470445 218891289 550301038 218745680 91731873#1 449288818#0 449288818#1 100829413 62073582 215077545 62073539 217159012#0 217159012#1 216657574"/>
    </vehicle>
    <vehicle id="211" depart="211.00">
        <route edges="550301038 218745680 91731873#1 449288818#0 449288818#1 100829406 217691379-AddedOnRampEdge 217691379 216657562 216657562-AddedOffRampEdge 449289872 759746395"/>
    </vehicle>
    <vehicle id="215" depart="215.00">
        <route edges="142470465 218891289 550301038 218745680 91731873#1 449288818#0 449288818#1 100829413 62073582"/>
    </vehicle>
    <vehicle id="217" depart="217.00">
        <route edges="109573928#1 550301038 218745680 217691393#0 217691393#1 215803157 159229344#0 159229344#0.2 142470423#0"/>
    </vehicle>
    <vehicle id="219" depart="219.00">
        <route edges="216243701-AddedOffRampEdge 100594724 359358942#0 359358942#1 216268744 142470445 218891289 550301038 218745680 217691393#0 217691393#1 215803157 159229344#0 159229344#0.2 142470423#0"/>
    </vehicle>
    <vehicle id="220" depart="220.00">
        <route edges="217365460#2 154607611 28306819#0 28306819#1 28306819#2 215803177"/>
    </vehicle>
    <vehicle id="221" depart="221.00">
        <route edges="-142470433#4 -142470433#3 -142470433#2 -142470433#1 218745680 217691393#0 217691393#1 215803157 216243708#1 28490061#1 28490061#2"/>
    </vehicle>
    <vehicle id="222" depart="222.00">
        <route edges="218745680 91731873#1 449288818#0 449288818#1 100829413 62073582 215077545 62073539 217159012#0"/>
    </vehicle>
    <vehicle id="223" depart="223.00">
        <route edges="216650898 775363913 775381929 28306817 215803174#0 215803157 216243708#1 220346965 154607611 154607613#0 154607613#1 216268744 142470445 218891289 550301038 142470433#1 142470433#2 142470433#3"/>
    </vehicle>
    <vehicle id="228" depart="228.00">
        <route edges="449288818#0 449288818#1 100829413 62073582 215077545 62073539 217159012#0 217159012#1 216657574 449289363 62073503 775363912 775363913 775381929 28306817 215803174#0 215803157 216243708#1 220346965 154607611 154607613#0 154607613#1 216268744 142470445 218891289 550301038 142470433#1 142470460#0"/>
    </vehicle>
    <vehicle id="230" depart="230.00">
        <route edges="62073503 775363912 775363913"/>
    </vehicle>
    <vehicle id="234" depart="234.00">
        <route edges="142470465 218891289 550301038 218745680 91731873#1"/>
    </vehicle>
    <vehicle id="236" depart="236.00">
        <route edges="217365460#0 217365460#1 217365460#2 154607611 154607613#0 154607613#1 216268744 142470461"/>
    </vehicle>
    <vehicle id="237" depart="237.00">
        <route edges="218745680 217691393#0 217691393#1 215803157 159229344#0"/>
    </vehicle>
    <vehicle id="238" depart="238.00">
        <route edges="62073536 217159012#0"/>
    </vehicle>
    <vehicle id="242" depart="242.00">
        <route edges="215077545 62073539 217159012#0 217159012#1 216657574 449289363 62073503 775363912 775363913 775381929 28306817 215803174#0 215803157 216243708#1 220346965 154607611 154607613#0 154607613#1 216268744 142470461"/>
    </vehicle>
    <vehicle id="243" depart="243.00">
        <route edges="215077545 62073539 217159012#0 217159012#1 216657574 449289363 62073503 775363912 775363913 775381929 28306817"/>
    </vehicle>
    <vehicle id="249" depart="249.00">
        <route edges="449288818#1 100829413 62073582 215077545 62073539 217159012#0 217159012#1 216657574 449289363 62073503"/>
    </vehicle>
    <vehicle id="251" depart="251.00">
        <route edges="217365460#0 25567763#0 200890620#0 200890620#1"/>
    </vehicle>
    <vehicle id="252" depart="252.00">
        <route edges="-142470433#2 142470460#0 142470460#1 449288818#0 449288818#1 100829413 62073582 215077545 62073539 217159012#0 217159012#1 216657574 449289363 62073503 775363912 775363913 775381929 28306817"/>
    </vehicle>
    <vehicle id="253" depart="253.00">
        <route edges="154607613#0 154607613#1 216268744 142470445 218891289 550301038 218745680 217691393#0 217691393#1 215803157 159229344#0"/>
    </vehicle>
    <vehicle id="255" depart="255.00">