<routes>
    <route id="-142470433#4_142470433#4.qPKW" edges="-142470433#4 -142470433#3 -142470433#2 -142470433#1 218745680 217691393#0 217691393#1 215803157 216243708#1 220346965 154607611 154607613#0 154607613#1 216268744 142470445 218891289 550301038 142470433#1 142470433#2 142470433#3 142470433#4"/>
    <route id="-142470433#4_28490061#2.qPKW" edges="-142470433#4 -142470433#3 -142470433#2 -142470433#1 218745680 217691393#0 217691393#1 215803157 216243708#1 28490061#1 28490061#2"/>
    <route id="-142470433#4_217553754.qPKW" edges="-142470433#4 -142470433#3 -142470433#2 -142470433#1 218745680 91731873#1 449288818#0 449288818#1 100829406 217691379-AddedOnRampEdge 217691379 216657562 216657562-AddedOffRampEdge 217553754"/>
    <route id="-142470433#4_217553754.1.qPKW" edges="-142470433#4 -142470433#3 -142470433#2 142470460#0 142470460#1 449288818#0 449288818#1 100829406 217691379-AddedOnRampEdge 217691379 216657562 216657562-AddedOffRampEdge 217553754"/>
    <route id="100829418_215803108.qPKW" edges="100829418 100829422 101005127.269 101005127.341 101005127.417 101005127.504 101005127.945 217912067 215803108"/>
    <route id="100829418_-109573928#1.8.qPKW" edges="100829418 100829422 101005127.269 101005127.341 101005127.417 775381929 28306817 215803174#0 215803157 216243708#1 220346965 154607611 154607613#0 154607613#1 216268744 142470445 218891289 -109573928#1.8"/>
    <route id="100829418_142470433#4.qPKW" edges="100829418 100829422 101005127.269 101005127.341 101005127.417 775381929 28306817 215803174#0 215803157 216243708#1 220346965 154607611 154607613#0 154607613#1 216268744 142470445 218891289 550301038 142470433#1 142470433#2 142470433#3 142470433#4"/>
    <route id="100829418_217553754.qPKW" edges="100829418 100829422 101005127.269 101005127.341 101005127.417 775381929 28306817 215803174#0 215803157 216243708#1 220346965 154607611 154607613#0 154607613#1 216268744 142470445 218891289 550301038 218745680 91731873#1 449288818#0 449288818#1 100829406 217691379-AddedOnRampEdge 217691379 216657562 216657562-AddedOffRampEdge 217553754"/>
    <route id="100829418_215803108.1.qPKW" edges="100829418 100829422 101005127.269 101005127.341 101005127.417 775381929 28306817 215803174#0 215803157 216243708#1 220346965 154607611 154607613#0 154607613#1 216268744 142470445 218891289 550301038 218745680 91731873#1 449288818#0 449288818#1 100829413 62073582 215077545 62073539 217159012#0 217159012#1 216657574 449289363 62073503 775363912 101005127.341 101005127.417 101005127.504 101005127.945 217912067 215803108"/>
    <route id="109573928#1_-109573928#1.8.qPKW" edges="109573928#1 550301038 218745680 217691393#0 217691393#1 215803157 216243708#1 220346965 154607611 154607613#0 154607613#1 216268744 142470445 218891289 -109573928#1.8"/>
    <route id="109573928#1_28490061#2.qPKW" edges="109573928#1 550301038 218745680 217691393#0 217691393#1 215803157 216243708#1 28490061#1 28490061#2"/>
    <route id="109573928#1_142470433#4.qPKW" edges="109573928#1 550301038 218745680 91731873#1 449288818#0 449288818#1 100829413 62073582 215077545 62073539 217159012#0 217159012#1 216657574 449289363 62073503 775363912 101005127.341 101005127.417 775381929 28306817 215803174#0 215803157 216243708#1 220346965 154607611 154607613#0 154607613#1 216268744 142470445 218891289 550301038 142470433#1 142470433#2 142470433#3 142470433#4"/>
    <route id="216243701_-217365458#0.qPKW" edges="216243701 216243701-AddedOffRampEdge 100594724 27528360 362088243#1 -217365458#2 -217365458#1 -217365458#0"/>
    <route id="216243701_159229344#0.2.qPKW" edges="216243701 216243701-AddedOffRampEdge 100594724 359358942#0 359358942#1 216268744 142470445 218891289 550301038 218745680 217691393#0 217691393#1 215803157 159229344#0 159229344#0.2"/>
    <route id="216243701_142470433#4.qPKW" edges="216243701 216243701-AddedOffRampEdge 100594724 359358942#0 359358942#1 216268744 142470445 218891289 550301038 218745680 217691393#0 217691393#1 215803157 216243708#1 220346965 154607611 154607613#0 154607613#1 216268744 142470445 218891289 550301038 142470433#1 142470433#2 142470433#3 142470433#4"/>
    <route id="216243701_217553754.qPKW" edges="216243701 216243701-AddedOffRampEdge 100594724 359358942#0 359358942#1 216268744 142470445 218891289 550301038 218745680 217691393#0 217691393#1 215803157 216243708#1 220346965 154607611 154607613#0 154607613#1 216268744 142470445 218891289 550301038 218745680 91731873#1 449288818#0 449288818#1 100829406 217691379-AddedOnRampEdge 217691379 216657562 216657562-AddedOffRampEdge 217553754"/>
    <route id="216243701_215803108.qPKW" edges="216243701 216243701-AddedOffRampEdge 100594724 359358942#0 359358942#1 216268744 142470445 218891289 550301038 218745680 217691393#0 217691393#1 215803157 216243708#1 220346965 154607611 28306819#0 28306819#1 28306819#2 215803177 217912067 215803108"/>
    <route id="216243701_28490061#2.qPKW" edges="216243701 216243701-AddedOffRampEdge 100594724 359358942#0 359358942#1 216268744 142470445 218891289 550301038 218745680 217691393#0 217691393#1 215803157 216243708#1 28490061#1 28490061#2"/>
    <route id="216243701_217553754.1.qPKW" edges="216243701 216243701-AddedOffRampEdge 100594724 359358942#0 359358942#1 216268744 142470445 218891289 550301038 218745680 91731873#1 449288818#0 449288818#1 100829406 217691379-AddedOnRampEdge 217691379 216657562 216657562-AddedOffRampEdge 217553754"/>
    <route id="216243701_215803108.1.qPKW" edges="216243701 216243701-AddedOffRampEdge 100594724 359358942#0 359358942#1 216268744 142470445 218891289 550301038 218745680 91731873#1 449288818#0 449288818#1 100829413 62073582 215077545 62073539 217159012#0 217159012#1 216657574 449289363 62073503 775363912 101005127.341 101005127.417 101005127.504 101005127.945 217912067 215803108"/>
    <route id="216243701_-217365458#0.1.qPKW" edges="216243701 216243701-AddedOffRampEdge 100594724 359358942#0 359358942#1 216268744 142470461 -217365458#2 -217365458#1 -217365458#0"/>
    <route id="216243701_217553754.2.qPKW" edges="216243701 216243701-AddedOffRampEdge 216243700 216243700.351 217691379-AddedOnRampEdge 217691379 216657562 216657562-AddedOffRampEdge 217553754"/>
    <route id="216650879_215803108.qPKW" edges="216650879 101005127.269 101005127.341 101005127.417 101005127.504 101005127.945 217912067 215803108"/>
    <route id="216650879_159229344#0.2.qPKW" edges="216650879 101005127.269 101005127.341 101005127.417 775381929 28306817 215803174#0 215803157 159229344#0 159229344#0.2"/>
    <route id="217365460#0_217553754.qPKW" edges="217365460#0 217365460#1 217365460#2 154607611 154607613#0 154607613#1 216268744 142470445 218891289 550301038 218745680 217691393#0 217691393#1 215803157 216243708#1 220346965 154607611 154607613#0 154607613#1 216268744 142470445 218891289 550301038 218745680 91731873#1 449288818#0 449288818#1 100829406 217691379-AddedOnRampEdge 217691379 216657562 216657562-AddedOffRampEdge 217553754"/>
    <route id="217365460#0_159229344#0.2.qPKW" edges="217365460#0 217365460#1 217365460#2 154607611 154607613#0 154607613#1 216268744 142470445 218891289 550301038 218745680 91731873#1 449288818#0 449288818#1 100829413 62073582 215077545 62073539 217159012#0 217159012#1 216657574 449289363 62073503 775363912 101005127.341 101005127.417 775381929 28306817 215803174#0 215803157 159229344#0 159229344#0.2"/>
    <route id="217365460#0_-217365458#0.qPKW" edges="217365460#0 217365460#1 217365460#2 154607611 154607613#0 154607613#1 216268744 142470461 -217365458#2 -217365458#1 -217365458#0"/>
    <route id="217365460#0_215803108.qPKW" edges="217365460#0 217365460#1 217365460#2 154607611 28306819#0 28306819#1 28306819#2 215803177 217912067 215803108"/>
    <route id="217365460#0_215803108.1.qPKW" edges="217365460#0 25567763#0 200890620#0 200890620#1 28306819#2 215803177 217912067 215803108"/>
    <route id="358043015#3_-109573928#1.8.qPKW" edges="358043015#3 217365458#1 217365458#2 142470465 218891289 -109573928#1.8"/>
    <route id="358043015#3_142470433#4.qPKW" edges="358043015#3 217365458#1 217365458#2 142470465 218891289 550301038 142470433#1 142470433#2 142470433#3 142470433#4"/>
    <route id="358043015#3_-109573928#1.8.1.qPKW" edges="358043015#3 217365458#1 217365458#2 142470465 218891289 550301038 218745680 217691393#0 217691393#1 215803157 216243708#1 220346965 154607611 154607613#0 154607613#1 216268744 142470445 218891289 -109573928#1.8"/>
</routes>
