<additional>
    <flow id="-142470433#4_159229344#0.2.qPKW" departSpeed="max" departPos="last" departLane="best" route="-142470433#4_159229344#0.2.qPKW" number="224" begin="0" end="3600" via="-142470433#1 217691393#0"/>
    <flow id="-142470433#4_-109573928#1.8.qPKW" departSpeed="max" departPos="last" departLane="best" route="-142470433#4_-109573928#1.8.qPKW" number="5" begin="0" end="3600" via="-142470433#1 217691393#0 216243708#1 220346965 154607613#0 218891289"/>
    <flow id="-142470433#4_449288818#0.qPKW" departSpeed="max" departPos="last" departLane="best" route="-142470433#4_449288818#0.qPKW" number="36" begin="0" end="3600" via="-142470433#1 217691393#0 216243708#1 220346965 154607613#0 218891289 91731873#1"/>
    <flow id="-142470433#4_449288818#0.1.qPKW" departSpeed="max" departPos="last" departLane="best" route="-142470433#4_449288818#0.1.qPKW" number="210" begin="0" end="3600" via="142470460#1"/>
    <flow id="100594724_-217365458#0.qPKW" departSpeed="max" departPos="last" departLane="best" route="100594724_-217365458#0.qPKW" number="51" begin="0" end="3600" via="362088243#1"/>
    <flow id="100594724_-109573928#1.8.qPKW" departSpeed="max" departPos="last" departLane="best" route="100594724_-109573928#1.8.qPKW" number="1" begin="0" end="3600" via="218891289"/>
    <flow id="100594724_142470433#4.qPKW" departSpeed="max" departPos="last" departLane="best" route="100594724_142470433#4.qPKW" number="264" begin="0" end="3600" via="218891289"/>
    <flow id="100594724_159229344#0.2.qPKW" departSpeed="max" departPos="last" departLane="best" route="100594724_159229344#0.2.qPKW" number="29" begin="0" end="3600" via="218891289 217691393#0"/>
    <flow id="100594724_449288818#0.qPKW" departSpeed="max" departPos="last" departLane="best" route="100594724_449288818#0.qPKW" number="291" begin="0" end="3600" via="218891289 217691393#0 216243708#1 220346965 154607613#0 218891289 91731873#1"/>
    <flow id="109573928#1_159229344#0.2.qPKW" departSpeed="max" departPos="last" departLane="best" route="109573928#1_159229344#0.2.qPKW" number="102" begin="0" end="3600" via="217691393#0"/>
    <flow id="109573928#1_28490061#2.qPKW" departSpeed="max" departPos="last" departLane="best" route="109573928#1_28490061#2.qPKW" number="51" begin="0" end="3600" via="217691393#0 216243708#1"/>
    <flow id="109573928#1_449288818#0.qPKW" departSpeed="max" departPos="last" departLane="best" route="109573928#1_449288818#0.qPKW" number="266" begin="0" end="3600" via="91731873#1"/>
    <flow id="217365460#0_-109573928#1.8.qPKW" departSpeed="max" departPos="last" departLane="best" route="217365460#0_-109573928#1.8.qPKW" number="32" begin="0" end="3600" via="154607613#0 218891289"/>
    <flow id="217365460#0_449288818#0.qPKW" departSpeed="max" departPos="last" departLane="best" route="217365460#0_449288818#0.qPKW" number="42" begin="0" end="3600" via="154607613#0 218891289 217691393#0 216243708#1 220346965 154607613#0 218891289 91731873#1"/>
    <flow id="217365460#0_-217365458#0.qPKW" departSpeed="max" departPos="last" departLane="best" route="217365460#0_-217365458#0.qPKW" number="7" begin="0" end="3600" via="154607613#0 218891289 217691393#0 216243708#1 220346965 154607613#0 142470461"/>
    <flow id="217365460#0_-217365458#0.1.qPKW" departSpeed="max" departPos="last" departLane="best" route="217365460#0_-217365458#0.1.qPKW" number="218" begin="0" end="3600" via="154607613#0 142470461"/>
    <flow id="217365460#0_28306819#1.qPKW" departSpeed="max" departPos="last" departLane="best" route="217365460#0_28306819#1.qPKW" number="290" begin="0" end="3600"/>
    <flow id="28306817_-109573928#1.8.qPKW" departSpeed="max" departPos="last" departLane="best" route="28306817_-109573928#1.8.qPKW" number="68" begin="0" end="3600" via="216243708#1 220346965 154607613#0 218891289"/>
    <flow id="28306817_-217365458#0.qPKW" departSpeed="max" departPos="last" departLane="best" route="28306817_-217365458#0.qPKW" number="55" begin="0" end="3600" via="216243708#1 220346965 154607613#0 218891289 217691393#0 216243708#1 220346965 154607613#0 142470461"/>
    <flow id="28306817_28306819#1.qPKW" departSpeed="max" departPos="last" departLane="best" route="28306817_28306819#1.qPKW" number="72" begin="0" end="3600" via="216243708#1 220346965 154607613#0 218891289 217691393#0 216243708#1 220346965"/>
    <flow id="28306817_449288818#0.qPKW" departSpeed="max" departPos="last" departLane="best" route="28306817_449288818#0.qPKW" number="252" begin="0" end="3600" via="216243708#1 220346965 154607613#0 218891289 91731873#1"/>
    <flow id="28306817_28306819#1.1.qPKW" departSpeed="max" departPos="last" departLane="best" route="28306817_28306819#1.1.qPKW" number="51" begin="0" end="3600" via="216243708#1 220346965"/>
    <flow id="28306817_28490061#2.qPKW" departSpeed="max" departPos="last" departLane="best" route="28306817_28490061#2.qPKW" number="399" begin="0" end="3600" via="216243708#1"/>
    <flow id="358043015#3_-109573928#1.8.qPKW" departSpeed="max" departPos="last" departLane="best" route="358043015#3_-109573928#1.8.qPKW" number="440" begin="0" end="3600" via="218891289"/>
</additional>
