<additional>
    <flow id="-142470433#4_142470433#4.qPKW" departSpeed="max" departPos="last" departLane="best" route="-142470433#4_142470433#4.qPKW" number="1" begin="0" end="3600" via="-142470433#1 217691393#0 216243708#1 220346965 154607613#0 218891289"/>
    <flow id="-142470433#4_28490061#2.qPKW" departSpeed="max" departPos="last" departLane="best" route="-142470433#4_28490061#2.qPKW" number="36" begin="0" end="3600" via="-142470433#1 217691393#0 216243708#1"/>
    <flow id="-142470433#4_217553754.qPKW" departSpeed="max" departPos="last" departLane="best" route="-142470433#4_217553754.qPKW" number="228" begin="0" end="3600" via="-142470433#1 91731873#1 449288818#0 100829406"/>
    <flow id="-142470433#4_217553754.1.qPKW" departSpeed="max" departPos="last" departLane="best" route="-142470433#4_217553754.1.qPKW" number="210" begin="0" end="3600" via="142470460#1 449288818#0 100829406"/>
    <flow id="100829418_215803108.qPKW" departSpeed="max" departPos="last" departLane="best" route="100829418_215803108.qPKW" number="90" begin="0" end="3600"/>
    <flow id="100829418_-109573928#1.8.qPKW" departSpeed="max" departPos="last" departLane="best" route="100829418_-109573928#1.8.qPKW" number="40" begin="0" end="3600" via="28306817 216243708#1 220346965 154607613#0 218891289"/>
    <flow id="100829418_142470433#4.qPKW" departSpeed="max" departPos="last" departLane="best" route="100829418_142470433#4.qPKW" number="69" begin="0" end="3600" via="28306817 216243708#1 220346965 154607613#0 218891289"/>
    <flow id="100829418_217553754.qPKW" departSpeed="max" departPos="last" departLane="best" route="100829418_217553754.qPKW" number="306" begin="0" end="3600" via="28306817 216243708#1 220346965 154607613#0 218891289 91731873#1 449288818#0 100829406"/>
    <flow id="100829418_215803108.1.qPKW" departSpeed="max" departPos="last" departLane="best" route="100829418_215803108.1.qPKW" number="33" begin="0" end="3600" via="28306817 216243708#1 220346965 154607613#0 218891289 91731873#1 449288818#0"/>
    <flow id="109573928#1_-109573928#1.8.qPKW" departSpeed="max" departPos="last" departLane="best" route="109573928#1_-109573928#1.8.qPKW" number="35" begin="0" end="3600" via="217691393#0 216243708#1 220346965 154607613#0 218891289"/>
    <flow id="109573928#1_28490061#2.qPKW" departSpeed="max" departPos="last" departLane="best" route="109573928#1_28490061#2.qPKW" number="294" begin="0" end="3600" via="217691393#0 216243708#1"/>
    <flow id="109573928#1_142470433#4.qPKW" departSpeed="max" departPos="last" departLane="best" route="109573928#1_142470433#4.qPKW" number="90" begin="0" end="3600" via="91731873#1 449288818#0 28306817 216243708#1 220346965 154607613#0 218891289"/>
    <flow id="216243701_-217365458#0.qPKW" departSpeed="max" departPos="last" departLane="best" route="216243701_-217365458#0.qPKW" number="51" begin="0" end="3600" via="100594724 362088243#1"/>
    <flow id="216243701_159229344#0.2.qPKW" departSpeed="max" departPos="last" departLane="best" route="216243701_159229344#0.2.qPKW" number="55" begin="0" end="3600" via="100594724 218891289 217691393#0"/>
    <flow id="216243701_142470433#4.qPKW" departSpeed="max" departPos="last" departLane="best" route="216243701_142470433#4.qPKW" number="76" begin="0" end="3600" via="100594724 218891289 217691393#0 216243708#1 220346965 154607613#0 218891289"/>
    <flow id="216243701_217553754.qPKW" departSpeed="max" departPos="last" departLane="best" route="216243701_217553754.qPKW" number="97" begin="0" end="3600" via="100594724 218891289 217691393#0 216243708#1 220346965 154607613#0 218891289 91731873#1 449288818#0 100829406"/>
    <flow id="216243701_215803108.qPKW" departSpeed="max" departPos="last" departLane="best" route="216243701_215803108.qPKW" number="139" begin="0" end="3600" via="100594724 218891289 217691393#0 216243708#1 220346965 28306819#1"/>
    <flow id="216243701_28490061#2.qPKW" departSpeed="max" departPos="last" departLane="best" route="216243701_28490061#2.qPKW" number="120" begin="0" end="3600" via="100594724 218891289 217691393#0 216243708#1"/>
    <flow id="216243701_217553754.1.qPKW" departSpeed="max" departPos="last" departLane="best" route="216243701_217553754.1.qPKW" number="36" begin="0" end="3600" via="100594724 218891289 91731873#1 449288818#0 100829406"/>
    <flow id="216243701_215803108.1.qPKW" departSpeed="max" departPos="last" departLane="best" route="216243701_215803108.1.qPKW" number="26" begin="0" end="3600" via="100594724 218891289 91731873#1 449288818#0"/>
    <!-- <flow id="216243701_-217365458#0.1.qPKW" departSpeed="max" departPos="last" departLane="best" route="216243701_-217365458#0.1.qPKW" number="36" begin="0" end="3600" via="100594724 142470461"/> -->
    <flow id="216243701_217553754.2.qPKW" departSpeed="max" departPos="last" departLane="best" route="216243701_217553754.2.qPKW" number="4887" begin="0" end="3600"/>
    <flow id="216650879_215803108.qPKW" departSpeed="max" departPos="last" departLane="best" route="216650879_215803108.qPKW" number="5438" begin="0" end="3600"/>
    <flow id="216650879_159229344#0.2.qPKW" departSpeed="max" departPos="last" departLane="best" route="216650879_159229344#0.2.qPKW" number="311" begin="0" end="3600" via="28306817"/>
    <flow id="217365460#0_217553754.qPKW" departSpeed="max" departPos="last" departLane="best" route="217365460#0_217553754.qPKW" number="58" begin="0" end="3600" via="154607613#0 218891289 217691393#0 216243708#1 220346965 154607613#0 218891289 91731873#1 449288818#0 100829406"/>
    <flow id="217365460#0_159229344#0.2.qPKW" departSpeed="max" departPos="last" departLane="best" route="217365460#0_159229344#0.2.qPKW" number="13" begin="0" end="3600" via="154607613#0 218891289 91731873#1 449288818#0 28306817"/>
    <flow id="217365460#0_-217365458#0.qPKW" departSpeed="max" departPos="last" departLane="best" route="217365460#0_-217365458#0.qPKW" number="244" begin="0" end="3600" via="154607613#0 142470461"/>
    <flow id="217365460#0_215803108.qPKW" departSpeed="max" departPos="last" departLane="best" route="217365460#0_215803108.qPKW" number="82" begin="0" end="3600" via="28306819#1"/>
    <flow id="217365460#0_215803108.1.qPKW" departSpeed="max" departPos="last" departLane="best" route="217365460#0_215803108.1.qPKW" number="192" begin="0" end="3600"/>
    <flow id="358043015#3_-109573928#1.8.qPKW" departSpeed="max" departPos="last" departLane="best" route="358043015#3_-109573928#1.8.qPKW" number="350" begin="0" end="3600" via="218891289"/>
    <flow id="358043015#3_142470433#4.qPKW" departSpeed="max" departPos="last" departLane="best" route="358043015#3_142470433#4.qPKW" number="28" begin="0" end="3600" via="218891289"/>
    <flow id="358043015#3_-109573928#1.8.1.qPKW" departSpeed="max" departPos="last" departLane="best" route="358043015#3_-109573928#1.8.1.qPKW" number="62" begin="0" end="3600" via="218891289 217691393#0 216243708#1 220346965 154607613#0 218891289"/>
</additional>
