<routes>
    <route id="-142470433#4_159229344#0.2.qPKW" edges="-142470433#4 -142470433#3 -142470433#2 -142470433#1 218745680 217691393#0 217691393#1 215803157 159229344#0 159229344#0.2"/>
    <route id="-142470433#4_-109573928#1.8.qPKW" edges="-142470433#4 -142470433#3 -142470433#2 -142470433#1 218745680 217691393#0 217691393#1 215803157 216243708#1 220346965 154607611 154607613#0 154607613#1 216268744 142470445 218891289 -109573928#1.8"/>
    <route id="-142470433#4_449288818#0.qPKW" edges="-142470433#4 -142470433#3 -142470433#2 -142470433#1 218745680 217691393#0 217691393#1 215803157 216243708#1 220346965 154607611 154607613#0 154607613#1 216268744 142470445 218891289 550301038 218745680 91731873#1 449288818#0"/>
    <route id="-142470433#4_449288818#0.1.qPKW" edges="-142470433#4 -142470433#3 -142470433#2 142470460#0 142470460#1 449288818#0"/>
    <route id="100594724_-217365458#0.qPKW" edges="100594724 27528360 362088243#1 -217365458#2 -217365458#1 -217365458#0"/>
    <route id="100594724_-109573928#1.8.qPKW" edges="100594724 359358942#0 359358942#1 216268744 142470445 218891289 -109573928#1.8"/>
    <route id="100594724_142470433#4.qPKW" edges="100594724 359358942#0 359358942#1 216268744 142470445 218891289 550301038 142470433#1 142470433#2 142470433#3 142470433#4"/>
    <route id="100594724_159229344#0.2.qPKW" edges="100594724 359358942#0 359358942#1 216268744 142470445 218891289 550301038 218745680 217691393#0 217691393#1 215803157 159229344#0 159229344#0.2"/>
    <route id="100594724_449288818#0.qPKW" edges="100594724 359358942#0 359358942#1 216268744 142470445 218891289 550301038 218745680 217691393#0 217691393#1 215803157 216243708#1 220346965 154607611 154607613#0 154607613#1 216268744 142470445 218891289 550301038 218745680 91731873#1 449288818#0"/>
    <route id="109573928#1_159229344#0.2.qPKW" edges="109573928#1 550301038 218745680 217691393#0 217691393#1 215803157 159229344#0 159229344#0.2"/>
    <route id="109573928#1_28490061#2.qPKW" edges="109573928#1 550301038 218745680 217691393#0 217691393#1 215803157 216243708#1 28490061#1 28490061#2"/>
    <route id="109573928#1_449288818#0.qPKW" edges="109573928#1 550301038 218745680 91731873#1 449288818#0"/>
    <route id="217365460#0_-109573928#1.8.qPKW" edges="217365460#0 217365460#1 217365460#2 154607611 154607613#0 154607613#1 216268744 142470445 218891289 -109573928#1.8"/>
    <route id="217365460#0_449288818#0.qPKW" edges="217365460#0 217365460#1 217365460#2 154607611 154607613#0 154607613#1 216268744 142470445 218891289 550301038 218745680 217691393#0 217691393#1 215803157 216243708#1 220346965 154607611 154607613#0 154607613#1 216268744 142470445 218891289 550301038 218745680 91731873#1 449288818#0"/>
    <route id="217365460#0_-217365458#0.qPKW" edges="217365460#0 217365460#1 217365460#2 154607611 154607613#0 154607613#1 216268744 142470445 218891289 550301038 218745680 217691393#0 217691393#1 215803157 216243708#1 220346965 154607611 154607613#0 154607613#1 216268744 142470461 -217365458#2 -217365458#1 -217365458#0"/>
    <route id="217365460#0_-217365458#0.1.qPKW" edges="217365460#0 217365460#1 217365460#2 154607611 154607613#0 154607613#1 216268744 142470461 -217365458#2 -217365458#1 -217365458#0"/>
    <route id="217365460#0_28306819#1.qPKW" edges="217365460#0 217365460#1 217365460#2 154607611 28306819#0 28306819#1"/>
    <route id="28306817_-109573928#1.8.qPKW" edges="28306817 215803174#0 215803157 216243708#1 220346965 154607611 154607613#0 154607613#1 216268744 142470445 218891289 -109573928#1.8"/>
    <route id="28306817_-217365458#0.qPKW" edges="28306817 215803174#0 215803157 216243708#1 220346965 154607611 154607613#0 154607613#1 216268744 142470445 218891289 550301038 218745680 217691393#0 217691393#1 215803157 216243708#1 220346965 154607611 154607613#0 154607613#1 216268744 142470461 -217365458#2 -217365458#1 -217365458#0"/>
    <route id="28306817_28306819#1.qPKW" edges="28306817 215803174#0 215803157 216243708#1 220346965 154607611 154607613#0 154607613#1 216268744 142470445 218891289 550301038 218745680 217691393#0 217691393#1 215803157 216243708#1 220346965 154607611 28306819#0 28306819#1"/>
    <route id="28306817_449288818#0.qPKW" edges="28306817 215803174#0 215803157 216243708#1 220346965 154607611 154607613#0 154607613#1 216268744 142470445 218891289 550301038 218745680 91731873#1 449288818#0"/>
    <route id="28306817_28306819#1.1.qPKW" edges="28306817 215803174#0 215803157 216243708#1 220346965 154607611 28306819#0 28306819#1"/>
    <route id="28306817_28490061#2.qPKW" edges="28306817 215803174#0 215803157 216243708#1 28490061#1 28490061#2"/>
    <route id="358043015#3_-109573928#1.8.qPKW" edges="358043015#3 217365458#1 217365458#2 142470465 218891289 -109573928#1.8"/>
</routes>
