<routes>
    <route id="216243701_759746395.qPKW" edges="216243701 216243701-AddedOffRampEdge 216243700 216243700.351 217691379-AddedOnRampEdge 217691379 216657562 216657562-AddedOffRampEdge 449289872 759746395"/>
    <route id="216650879_217553754.qPKW" edges="216650879 100829420 216650898 775363913 775381929 28306817 215803174#0 215803157 216243708#1 220346965 154607611 154607613#0 154607613#1 216268744 142470445 218891289 550301038 218745680 91731873#1 449288818#0 449288818#1 100829406 217691379-AddedOnRampEdge 217691379 216657562 216657562-AddedOffRampEdge 217553754"/>
    <route id="216650879_215803108.qPKW" edges="216650879 101005127 101005127.945 217912067 215803108"/>
    <route id="80925648_217553754.qPKW" edges="80925648 100829418 100829422 216650898 775363913 775381929 28306817 215803174#0 215803157 216243708#1 220346965 154607611 154607613#0 154607613#1 216268744 142470445 218891289 550301038 218745680 91731873#1 449288818#0 449288818#1 100829406 217691379-AddedOnRampEdge 217691379 216657562 216657562-AddedOffRampEdge 217553754"/>
</routes>
