<additional>
    <flow id="216243701_759746395.qPKW" departSpeed="max" departPos="last" departLane="best" route="216243701_759746395.qPKW" number="5196" begin="0" end="3600"/>
    <flow id="216650879_217553754.qPKW" departSpeed="max" departPos="last" departLane="best" route="216650879_217553754.qPKW" number="117" begin="0" end="3600"/>
    <flow id="216650879_215803108.qPKW" departSpeed="max" departPos="last" departLane="best" route="216650879_215803108.qPKW" number="4774" begin="0" end="3600"/>
    <flow id="80925648_217553754.qPKW" departSpeed="max" departPos="last" departLane="best" route="80925648_217553754.qPKW" number="4210" begin="0" end="3600"/>
</additional>
