<routes xmlns:xsi="http://www.w3.org/2001/XMLSchema-instance" xsi:noNamespaceSchemaLocation="http://sumo.dlr.de/xsd/routes_file.xsd">
    <person id="17" depart="17.00">
        <walk edges="217365460#1 217365460#2 154607611 154607613#0 154607613#1 216268744 142470461 217365458#2" />
    </person>
    <person id="19" depart="19.00">
        <walk edges="28490061#2 28490061#1 775381932 154607611 154607613#0 154607613#1 216268744 142470461 142470465 218891289 550301038 142470433#1 142470433#2 142470433#3 142470433#4 -142470433#4 -142470433#3 -142470433#2 142470460#0" />
    </person>
    <person id="24" depart="24.00">
        <walk edges="-142470433#3 -142470433#4 142470433#4 142470433#3 142470433#2 142470433#1 550301038 218891289 142470465 217365458#2" />
    </person>
    <person id="25" depart="25.00">
        <walk edges="217365460#0 28490061#2 28490061#1 775381932 154607611 154607613#0 154607613#1 216268744 142470461 217365458#2" />
    </person>
    <person id="28" depart="28.00">
        <walk edges="359349713#2 359349713#0 216243708#1 775381932 154607611 154607613#0 154607613#1 216268744 142470461 217365458#2 217365458#1 358043015#3 -217365458#0 -217365458#1 -217365458#2" />
    </person>
    <person id="29" depart="29.00">
        <walk edges="142470433#3 142470433#2 142470433#1 550301038 218891289 142470465 142470461 216268744 154607613#1 154607613#0 154607611 775381932 216243708#1" />
    </person>
    <person id="49" depart="49.00">
        <walk edges="-216268747 159229344#0.2 159229344#0 216243708#1 775381932 154607611 154607613#0 154607613#1 216268744 142470461 142470465 218891289 550301038 142470433#1 142470433#2 142470433#3 142470433#4" />
    </person>
    <person id="55" depart="55.00">
        <walk edges="28490061#2 28490061#1 775381932 154607611 154607613#0 154607613#1 216268744 142470461 142470465 218891289 550301038 142470433#1 142470433#2 142470433#3" />
    </person>
    <person id="69" depart="69.00">
        <walk edges="217365460#1 217365460#2 154607611 154607613#0 154607613#1 216268744 142470461 142470465 218891289" />
    </person>
    <person id="72" depart="72.00">
        <walk edges="28490061#1 775381932 154607611 154607613#0 154607613#1 216268744 142470461 142470465 218891289 550301038 142470433#1 142470433#2 142470433#3 142470433#4 -142470433#4 -142470433#3 -142470433#2" />
    </person>
    <person id="82" depart="82.00">
        <walk edges="-142470433#3 -142470433#4 142470433#4 142470433#3 142470433#2 142470433#1 550301038 218891289 142470465 142470461 216268744 154607613#1 154607613#0 154607611 775381932 28490061#1 28490061#2 217365460#0 25567763#0" />
    </person>
    <person id="86" depart="86.00">
        <walk edges="159229344#0 216243708#1 775381932 154607611 154607613#0 154607613#1 216268744 142470461 217365458#2 217365458#1 358043015#3 -217365458#0" />
    </person>
    <person id="88" depart="88.00">
        <walk edges="28370559#8 28370559#7 -142470423#2 142470423#2" />
    </person>
    <person id="90" depart="90.00">
        <walk edges="25567763#0 217365460#0 28490061#2 28490061#1 775381932 154607611 154607613#0 154607613#1 216268744 142470461 217365458#2 217365458#1 358043015#3 -217365458#0" />
    </person>
    <person id="95" depart="95.00">
        <walk edges="142470465 142470461 216268744 154607613#1 154607613#0 154607611 217365460#2 217365460#1" />
    </person>
    <person id="97" depart="97.00">
        <walk edges="142470461 216268744 154607613#1 154607613#0 154607611 775381932 28490061#1 28490061#2 217365460#0 25567763#0" />
    </person>
    <person id="107" depart="107.00">
        <walk edges="220346965 216243708#1 -159229344#0" />
    </person>
    <person id="113" depart="113.00">
        <walk edges="215803157 216243708#1 775381932 154607611 154607613#0 154607613#1 216268744 142470461 217365458#2 217365458#1 358043015#3 -217365458#0" />
    </person>
    <person id="118" depart="118.00">
        <walk edges="550301038 218891289 142470465 217365458#2 217365458#1 358043015#3 -217365458#0 -217365458#1 -217365458#2" />
    </person>
    <person id="121" depart="121.00">
        <walk edges="-217365458#1 -217365458#0 358043015#3 217365458#1 217365458#2 142470465 218891289 -109573928#1.8 109573928#1" />
    </person>
    <person id="141" depart="141.00">
        <walk edges="549548862#1 -142470423#0 -159229344#0 216243708#1 775381932 154607611 154607613#0 154607613#1 216268744 142470461 142470465 218891289 -109573928#1.8 109573928#1" />
    </person>
    <person id="146" depart="146.00">
        <walk edges="159229344#0 216243708#1 775381932 154607611 154607613#0 154607613#1 216268744 142470461 142470465 218891289 550301038 142470433#1 142470433#2 142470433#3 142470433#4 -142470433#4 -142470433#3" />
    </person>
    <person id="147" depart="147.00">
        <walk edges="142470433#2 142470433#1 550301038 218891289 142470465 217365458#2 217365458#1 358043015#3 -217365458#0 -217365458#1" />
    </person>
    <person id="149" depart="149.00">
        <walk edges="159229344#0 216243708#1 775381932 154607611 154607613#0 154607613#1 216268744 142470461 142470465 218891289 -109573928#1.8 109573928#1" />
    </person>
    <person id="150" depart="150.00">
        <walk edges="549548862#1 -142470423#0 -159229344#0 359349713#0 359349713#2" />
    </person>
    <person id="151" depart="151.00">
        <walk edges="217365460#0 28490061#2 28490061#1 216243708#1 159229344#0 159229344#0.2 -216268747" />
    </person>
    <person id="153" depart="153.00">
        <walk edges="142470465 142470461 216268744 154607613#1 154607613#0 154607611 775381932 216243708#1 359349713#0 359349713#2" />
    </person>
    <person id="166" depart="166.00">
        <walk edges="775381932 154607611 154607613#0 154607613#1 216268744 142470461 142470465 218891289 550301038 142470433#1 142470433#2 142470433#3" />
    </person>
    <person id="170" depart="170.00">
        <walk edges="142470433#1 550301038 218891289 142470465 142470461 216268744 154607613#1 154607613#0 154607611 775381932 28490061#1 28490061#2 217365460#0 25567763#0" />
    </person>
    <person id="171" depart="171.00">
        <walk edges="217365458#2 142470465 218891289 550301038 142470433#1 142470433#2 142470433#3 142470433#4 -142470433#4 -142470433#3 -142470433#2" />
    </person>
    <person id="177" depart="177.00">
        <walk edges="-217365458#2 -217365458#1 -217365458#0 358043015#3 217365458#1 217365458#2 142470461 216268744 154607613#1 154607613#0 154607611 217365460#2 217365460#1" />
    </person>
    <person id="178" depart="178.00">
        <walk edges="775381932 216243708#1" />
    </person>
    <person id="181" depart="181.00">
        <walk edges="142470433#2 142470433#1 550301038 218891289 142470465" />
    </person>
    <person id="182" depart="182.00">
        <walk edges="-142470433#2 142470460#0 142470460#1" />
    </person>
    <person id="185" depart="185.00">
        <walk edges="362088243#1 -217365458#2 -217365458#1 -217365458#0 358043015#3 217365458#1 217365458#2 142470465 218891289 550301038 142470433#1 142470433#2 142470433#3 142470433#4" />
    </person>
    <person id="186" depart="186.00">
        <walk edges="28490061#1 216243708#1 215803157" />
    </person>
    <person id="193" depart="193.00">
        <walk edges="-217365458#1 -217365458#0 358043015#3 217365458#1 217365458#2 142470461 216268744 154607613#1 154607613#0 154607611 775381932 216243708#1 215803157 217691393#1" />
    </person>
    <person id="195" depart="195.00">
        <walk edges="217365460#0 28490061#2 28490061#1 775381932 154607611 154607613#0 154607613#1 216268744 142470461 217365458#2 217365458#1" />
    </person>
    <person id="197" depart="197.00">
        <walk edges="109573928#1 -109573928#1.8 218891289 142470465 142470461 216268744 154607613#1 154607613#0 154607611 217365460#2 97855879" />
    </person>
    <person id="214" depart="214.00">
        <walk edges="-142470433#1 550301038 218891289 142470465 142470461 216268744 154607613#1 154607613#0 154607611 775381932 28490061#1 28490061#2 217365460#0 25567763#0" />
    </person>
    <person id="215" depart="215.00">
        <walk edges="-159229344#0 216243708#1 775381932 154607611 154607613#0 154607613#1 216268744 142470461" />
    </person>
    <person id="217" depart="217.00">
        <walk edges="154607613#1 216268744 142470461 142470465 218891289 550301038 142470433#1 142470433#2 142470433#3 142470433#4 -142470433#4 -142470433#3" />
    </person>
    <person id="232" depart="232.00">
        <walk edges="142470433#1 550301038 218891289 142470465 142470461 216268744 154607613#1 154607613#0" />
    </person>
    <person id="233" depart="233.00">
        <walk edges="550301038 218891289 142470465 142470461 216268744 154607613#1 154607613#0 154607611 775381932 216243708#1 -159229344#0 -142470423#0" />
    </person>
    <person id="238" depart="238.00">
        <walk edges="220346965 216243708#1 215803157 215803174#0" />
    </person>
    <person id="243" depart="243.00">
        <walk edges="217691393#0 217691393#1 215803157 216243708#1 775381932 154607611 154607613#0 154607613#1 216268744 142470461 217365458#2 217365458#1 358043015#3 -217365458#0 -217365458#1 -217365458#2 362088243#1 27528360" />
    </person>
    <person id="244" depart="244.00">
        <walk edges="-109573928#1.8 218891289 142470465 142470461 216268744 154607613#1 154607613#0 154607611 775381932 216243708#1 215803157 215803174#0" />
    </person>
    <person id="252" depart="252.00">
        <walk edges="-217365458#0 358043015#3 217365458#1 217365458#2 142470461 216268744 154607613#1 154607613#0 154607611 775381932 216243708#1 215803157" />
    </person>
    <person id="256" depart="256.00">
        <walk edges="154607611 775381932 216243708#1 359349713#0" />
    </person>
    <person id="257" depart="257.00">
        <walk edges="217365458#2 142470461 216268744 154607613#1 154607613#0 154607611 775381932 216243708#1 215803157 217691393#1" />
    </person>
    <person id="263" depart="263.00">
        <walk edges="217365458#2 142470465 218891289 550301038 142470433#1 142470433#2 142470433#3 142470433#4 -142470433#4 -142470433#3 -142470433#2" />
    </person>
    <person id="264" depart="264.00">
        <walk edges="216268744 154607613#1 154607613#0 154607611 775381932 216243708#1 215803157" />
    </person>
    <person id="269" depart="269.00">
        <walk edges="142470433#2 142470433#1 550301038 218891289 142470465 217365458#2 217365458#1 358043015#3 -217365458#0 -217365458#1 -217365458#2 362088243#1" />
    </person>
    <person id="289" depart="289.00">
        <walk edges="220346965 154607611 154607613#0 154607613#1 216268744 142470461 142470465 218891289 550301038" />
    </person>
    <person id="293" depart="293.00">
        <walk edges="159229344#0.2 159229344#0 216243708#1 775381932 154607611 154607613#0 154607613#1 216268744 142470461 217365458#2 217365458#1" />
    </person>
    <person id="302" depart="302.00">
        <walk edges="-159229344#0 216243708#1 775381932 154607611" />
    </person>
    <person id="304" depart="304.00">
        <walk edges="142470433#3 142470433#2 142470433#1 550301038 109573928#1" />
    </person>
    <person id="307" depart="307.00">
        <walk edges="215803157 216243708#1 775381932 154607611 154607613#0 154607613#1 216268744 142470461 142470465 218891289 550301038 142470433#1 142470433#2 142470433#3 142470433#4 -142470433#4" />
    </person>
    <person id="317" depart="317.00">
        <walk edges="215803174#0 215803157 216243708#1 775381932 154607611 154607613#0 154607613#1 216268744 142470461 217365458#2 217365458#1" />
    </person>
    <person id="327" depart="327.00">
        <walk edges="220346965 154607611 154607613#0 154607613#1 216268744 142470461 217365458#2 217365458#1 358043015#3" />
    </person>
    <person id="338" depart="338.00">
        <walk edges="142470465 142470461 216268744 154607613#1 154607613#0 154607611 775381932 216243708#1 -159229344#0 -142470423#0 549548862#1" />
    </person>
    <person id="343" depart="343.00">
        <walk edges="-142470433#1 550301038" />
    </person>
    <person id="347" depart="347.00">
        <walk edges="359349713#2 359349713#0 216243708#1 775381932 154607611 154607613#0 154607613#1 216268744 142470461 142470465 218891289 550301038 142470433#1 142470433#2 142470433#3 142470433#4 -142470433#4 -142470433#3 -142470433#2 142470460#0 142470460#1" />
    </person>
    <person id="350" depart="350.00">
        <walk edges="215803174#0 215803157 216243708#1 220346965" />
    </person>
    <person id="360" depart="360.00">
        <walk edges="109573928#1 -109573928#1.8 218891289 142470465 142470461 216268744 154607613#1 154607613#0 154607611 775381932 216243708#1 -159229344#0 -142470423#0" />
    </person>
    <person id="385" depart="385.00">
        <walk edges="142470460#0 -142470433#2 -142470433#3 -142470433#4 142470433#4 142470433#3 142470433#2 142470433#1 550301038 218891289 142470465 142470461 216268744 154607613#1 154607613#0 154607611 775381932 216243708#1 215803157 217691393#1 217691393#0 91731873#1" />
    </person>
    <person id="389" depart="389.00">
        <walk edges="142470461 142470465 218891289 550301038 -142470433#1" />
    </person>
    <person id="392" depart="392.00">
        <walk edges="142470433#3 142470433#2 142470433#1 550301038 218891289 142470465 142470461 216268744 154607613#1 154607613#0 154607611 775381932" />
    </person>
    <person id="399" depart="399.00">
        <walk edges="216268744 142470461 217365458#2 217365458#1 358043015#3" />
    </person>
    <person id="402" depart="402.00">
        <walk edges="549548862#1 -142470423#0 -159229344#0 216243708#1 775381932" />
    </person>
    <person id="405" depart="405.00">
        <walk edges="215803157 216243708#1 775381932 154607611 154607613#0 154607613#1 216268744 142470461 217365458#2" />
    </person>
    <person id="424" depart="424.00">
        <walk edges="549548862#1 -142470423#0 -159229344#0 216243708#1 775381932 154607611 154607613#0 154607613#1 216268744 142470461 142470465 218891289 550301038 142470433#1 142470433#2 142470433#3 142470433#4" />
    </person>
    <person id="431" depart="431.00">
        <walk edges="142470433#3 142470433#2 142470433#1 550301038 218891289 142470465 142470461 216268744 154607613#1" />
    </person>
    <person id="436" depart="436.00">
        <walk edges="159229344#0.2 159229344#0 216243708#1 775381932 154607611 154607613#0 154607613#1 216268744 142470461 142470465 218891289 550301038 142470433#1" />
    </person>
    <person id="438" depart="438.00">
        <walk edges="216268747 159229344#0.2 159229344#0 216243708#1 775381932 217365460#2 217365460#1" />
    </person>
    <person id="442" depart="442.00">
        <walk edges="362088243#1 -217365458#2 -217365458#1 -217365458#0 358043015#3" />
    </person>
    <person id="450" depart="450.00">
        <walk edges="216243708#1 28490061#1 28490061#2" />
    </person>
    <person id="467" depart="467.00">
        <walk edges="142470423#2 -142470423#2 28370559#7 28370559#8" />
    </person>
    <person id="470" depart="470.00">
        <walk edges="142470433#2 142470433#1 550301038 218891289 142470465 142470461 216268744 154607613#1 154607613#0 154607611 775381932 216243708#1 215803157" />
    </person>
    <person id="471" depart="471.00">
        <walk edges="218891289 142470465 142470461 216268744 154607613#1 154607613#0 154607611" />
    </person>
    <person id="475" depart="475.00">
        <walk edges="549548862#1 -142470423#0 -159229344#0 159229344#0 159229344#0.2 -216268747" />
    </person>
    <person id="481" depart="481.00">
        <walk edges="-142470423#0 -159229344#0 216243708#1 775381932 154607611 154607613#0" />
    </person>
    <person id="483" depart="483.00">
        <walk edges="220346965 154607611 154607613#0 154607613#1" />
    </person>
    <person id="484" depart="484.00">
        <walk edges="215803157 216243708#1 775381932 154607611" />
    </person>
    <person id="503" depart="503.00">
        <walk edges="-142470423#0 -159229344#0 216243708#1 775381932 154607611 154607613#0 154607613#1 216268744 142470461 142470465 218891289" />
    </person>
    <person id="507" depart="507.00">
        <walk edges="-217365458#0 358043015#3 217365458#1 217365458#2" />
    </person>
    <person id="511" depart="511.00">
        <walk edges="142470433#1 550301038 218891289 142470465 142470461 216268744 154607613#1 154607613#0 154607611 775381932 216243708#1 215803157 215803174#0" />
    </person>
    <person id="519" depart="519.00">
        <walk edges="109573928#1 -109573928#1.8 218891289 142470465 142470461 216268744 154607613#1 154607613#0 154607611 775381932 28490061#1 28490061#2" />
    </person>
    <person id="536" depart="536.00">
        <walk edges="358043015#3 217365458#1 217365458#2 142470465 218891289 -109573928#1.8" />
    </person>
    <person id="541" depart="541.00">
        <walk edges="358043015#3 217365458#1 217365458#2 142470465 218891289 -109573928#1.8 109573928#1" />
    </person>
    <person id="543" depart="543.00">
        <walk edges="549548862#1 -142470423#0 -159229344#0 216243708#1 775381932 154607611 154607613#0 154607613#1 216268744 142470461 217365458#2 217365458#1" />
    </person>
    <person id="544" depart="544.00">
        <walk edges="217365458#2 217365458#1 358043015#3 -217365458#0 -217365458#1 -217365458#2" />
    </person>
    <person id="549" depart="549.00">
        <walk edges="142470433#2 142470433#3 142470433#4" />
    </person>
    <person id="563" depart="563.00">
        <walk edges="362088243#1 -217365458#2 -217365458#1 -217365458#0 358043015#3 217365458#1 217365458#2 142470461 216268744 154607613#1 154607613#0 154607611 217365460#2 217365460#1" />
    </person>
    <person id="565" depart="565.00">
        <walk edges="775381932 154607611 154607613#0 154607613#1 216268744 142470461 217365458#2 217365458#1 358043015#3 -217365458#0 -217365458#1" />
    </person>
    <person id="581" depart="581.00">
        <walk edges="142470433#3 142470433#2 142470433#1 550301038 218891289 142470465 142470461 216268744 154607613#1 154607613#0 154607611 775381932 216243708#1 -159229344#0 -142470423#0 549548862#1" />
    </person>
    <person id="585" depart="585.00">
        <walk edges="215803174#0 215803157 216243708#1 775381932 154607611 154607613#0 154607613#1 216268744 142470461 142470465 218891289 -109573928#1.8" />
    </person>
    <person id="591" depart="591.00">
        <walk edges="217365458#2 142470461 216268744 154607613#1 154607613#0 154607611 775381932 216243708#1 159229344#0 159229344#0.2" />
    </person>
    <person id="601" depart="601.00">
        <walk edges="359349713#0 216243708#1 775381932 154607611 154607613#0 154607613#1 216268744 142470461 142470465 218891289 550301038 142470433#1 142470433#2 142470433#3 142470433#4 -142470433#4 -142470433#3 -142470433#2 142470460#0" />
    </person>
    <person id="609" depart="609.00">
        <walk edges="220346965 154607611 154607613#0 154607613#1 216268744 142470461 142470465 218891289 550301038 -142470433#1" />
    </person>
    <person id="615" depart="615.00">
        <walk edges="154607611 154607613#0 154607613#1 216268744 142470461 217365458#2 217365458#1 358043015#3 -217365458#0 -217365458#1 -217365458#2 362088243#1 27528360" />
    </person>
    <person id="616" depart="616.00">
        <walk edges="218891289 142470465 142470461 216268744 154607613#1 154607613#0 154607611 775381932 216243708#1 215803157 217691393#1 217691393#0" />
    </person>
    <person id="623" depart="623.00">
        <walk edges="-159229344#0 216243708#1 775381932 154607611 154607613#0 154607613#1 216268744 142470461 142470465 218891289 550301038 142470433#1 142470433#2 142470433#3 142470433#4 -142470433#4 -142470433#3 -142470433#2" />
    </person>
    <person id="626" depart="626.00">
        <walk edges="159229344#0.2 159229344#0 216243708#1 775381932 154607611" />
    </person>
    <person id="646" depart="646.00">
        <walk edges="217365458#1 217365458#2 142470461 216268744 154607613#1" />
    </person>
    <person id="650" depart="650.00">
        <walk edges="217691393#0 217691393#1 215803157 216243708#1 28490061#1 28490061#2 217365460#0" />
    </person>
    <person id="652" depart="652.00">
        <walk edges="-159229344#0 216243708#1 775381932 154607611 154607613#0 154607613#1 216268744 142470461 217365458#2 217365458#1 358043015#3 -217365458#0 -217365458#1 -217365458#2 362088243#1 27528360" />
    </person>
    <person id="659" depart="659.00">
        <walk edges="97855879 217365460#2 775381932 216243708#1 359349713#0 359349713#2" />
    </person>
    <person id="664" depart="664.00">
        <walk edges="217691393#1 215803157 216243708#1 775381932 154607611 154607613#0 154607613#1 216268744 142470461 142470465 218891289 550301038 142470433#1 142470433#2 142470433#3 142470433#4 -142470433#4 -142470433#3 -142470433#2" />
    </person>
    <person id="678" depart="678.00">
        <walk edges="-217365458#0 -217365458#1 -217365458#2 362088243#1" />
    </person>
    <person id="690" depart="690.00">
        <walk edges="142470465 217365458#2" />
    </person>
    <person id="698" depart="698.00">
        <walk edges="217365458#1 217365458#2 142470465 218891289 -109573928#1.8" />
    </person>
    <person id="716" depart="716.00">
        <walk edges="216243708#1 28490061#1 28490061#2 217365460#0" />
    </person>
    <person id="720" depart="720.00">
        <walk edges="217365458#1 358043015#3 -217365458#0 -217365458#1 -217365458#2 362088243#1 27528360" />
    </person>
    <person id="722" depart="722.00">
        <walk edges="142470460#1 142470460#0 -142470433#2 -142470433#3 -142470433#4 142470433#4 142470433#3 142470433#2 142470433#1 550301038 218891289 142470465" />
    </person>
    <person id="723" depart="723.00">
        <walk edges="142470461 142470465 218891289 550301038 142470433#1 142470433#2 142470433#3 142470433#4" />
    </person>
    <person id="724" depart="724.00">
        <walk edges="216268747 159229344#0.2 159229344#0 215803157 217691393#1 217691393#0 91731873#1" />
    </person>
    <person id="727" depart="727.00">
        <walk edges="154607613#1 216268744 142470461 142470465 218891289 550301038 142470433#1 142470433#2 142470433#3 142470433#4 -142470433#4" />
    </person>
    <person id="730" depart="730.00">
        <walk edges="-109573928#1.8 218891289 142470465 142470461 216268744 154607613#1 154607613#0 154607611 220346965" />
    </person>
    <person id="731" depart="731.00">
        <walk edges="359349713#0 216243708#1 775381932 154607611 154607613#0 154607613#1 216268744 142470461 142470465 218891289 550301038 -142470433#1" />
    </person>
    <person id="733" depart="733.00">
        <walk edges="154607613#0 154607611 775381932 216243708#1 215803157 217691393#1 217691393#0" />
    </person>
    <person id="737" depart="737.00">
        <walk edges="-142470433#1 550301038 218891289 142470465 142470461 216268744 154607613#1 154607613#0 154607611 775381932 28490061#1 28490061#2 217365460#0 25567763#0" />
    </person>
    <person id="741" depart="741.00">
        <walk edges="142470433#1 550301038 218891289 142470465 142470461 216268744 154607613#1 154607613#0 154607611 775381932 216243708#1 -159229344#0" />
    </person>
    <person id="743" depart="743.00">
        <walk edges="218891289 142470465 142470461 216268744 154607613#1 154607613#0 154607611 775381932 216243708#1 -159229344#0 -142470423#0 549548862#1" />
    </person>
    <person id="767" depart="767.00">
        <walk edges="217365460#1 217365460#2 775381932 216243708#1 159229344#0" />
    </person>
    <person id="770" depart="770.00">
        <walk edges="217365460#0 28490061#2 28490061#1 216243708#1 215803157 217691393#1 217691393#0 91731873#1" />
    </person>
    <person id="771" depart="771.00">
        <walk edges="154607613#1 154607613#0 154607611 775381932 216243708#1 159229344#0 159229344#0.2 216268747" />
    </person>
    <person id="780" depart="780.00">
        <walk edges="28490061#2 28490061#1 220346965" />
    </person>
    <person id="781" depart="781.00">
        <walk edges="-217365458#0 358043015#3 217365458#1 217365458#2 142470465 218891289 550301038 142470433#1 142470433#2" />
    </person>
    <person id="782" depart="782.00">
        <walk edges="27528360 362088243#1 -217365458#2 -217365458#1 -217365458#0 358043015#3 217365458#1 217365458#2 142470461 216268744 154607613#1 154607613#0 154607611 217365460#2 97855879" />
    </person>
    <person id="785" depart="785.00">
        <walk edges="217691393#1 215803157 216243708#1 775381932 154607611 154607613#0 154607613#1 216268744 142470461 217365458#2 217365458#1 358043015#3 -217365458#0 -217365458#1 -217365458#2" />
    </person>
    <person id="795" depart="795.00">
        <walk edges="154607613#1 154607613#0 154607611 775381932 216243708#1 159229344#0 159229344#0.2 -216268747" />
    </person>
    <person id="809" depart="809.00">
        <walk edges="159229344#0 216243708#1 775381932 154607611 154607613#0 154607613#1 216268744 142470461 142470465 218891289 550301038 142470433#1 142470433#2 142470433#3 142470433#4 -142470433#4 -142470433#3 -142470433#2" />
    </person>
    <person id="819" depart="819.00">
        <walk edges="-142470433#2 -142470433#3 -142470433#4 142470433#4 142470433#3 142470433#2 142470433#1 550301038 218891289 142470465 142470461 216268744 154607613#1 154607613#0 154607611 775381932 216243708#1 215803157 215803174#0" />
    </person>
    <person id="836" depart="836.00">
        <walk edges="216268744 154607613#1 154607613#0 154607611 775381932 28490061#1" />
    </person>
    <person id="841" depart="841.00">
        <walk edges="-142470433#1 550301038 218891289 142470465 142470461 216268744 154607613#1 154607613#0 154607611 775381932 28490061#1 28490061#2" />
    </person>
    <person id="850" depart="850.00">
        <walk edges="27528360 362088243#1 -217365458#2 -217365458#1 -217365458#0 358043015#3 217365458#1 217365458#2 142470461 216268744 154607613#1 154607613#0 154607611 775381932 216243708#1 359349713#0" />
    </person>
    <person id="854" depart="854.00">
        <walk edges="358043015#3 217365458#1 217365458#2 142470465 218891289 -109573928#1.8" />
    </person>
    <person id="859" depart="859.00">
        <walk edges="-217365458#1 -217365458#0 358043015#3 217365458#1 217365458#2 142470461 216268744 154607613#1 154607613#0 154607611 775381932 28490061#1 28490061#2 217365460#0 25567763#0" />
    </person>
    <person id="864" depart="864.00">
        <walk edges="-216268747 159229344#0.2 159229344#0 216243708#1 775381932 154607611 154607613#0 154607613#1 216268744 142470461 217365458#2 217365458#1 358043015#3 -217365458#0" />
    </person>
    <person id="868" depart="868.00">
        <walk edges="550301038 109573928#1" />
    </person>
    <person id="870" depart="870.00">
        <walk edges="154607613#1 216268744 142470461 142470465 218891289 550301038 142470433#1 142470433#2" />
    </person>
    <person id="872" depart="872.00">
        <walk edges="142470433#4 142470433#3 142470433#2 142470433#1 550301038 218891289 142470465 142470461 216268744 154607613#1 154607613#0 154607611 775381932 28490061#1 28490061#2" />
    </person>
    <person id="876" depart="876.00">
        <walk edges="549548862#1 -142470423#0 -159229344#0 216243708#1" />
    </person>
    <person id="877" depart="877.00">
        <walk edges="550301038 142470433#1 142470433#2 142470433#3 142470433#4 -142470433#4 -142470433#3" />
    </person>
    <person id="886" depart="886.00">
        <walk edges="142470461 142470465 218891289 550301038 142470433#1 142470433#2 142470433#3 142470433#4 -142470433#4 -142470433#3 -142470433#2" />
    </person>
    <person id="888" depart="888.00">
        <walk edges="216268747 159229344#0.2 159229344#0 216243708#1 775381932 154607611 154607613#0 154607613#1 216268744 142470461 142470465 218891289 550301038 142470433#1 142470433#2 142470433#3 142470433#4 -142470433#4" />
    </person>
    <person id="903" depart="903.00">
        <walk edges="-142470433#2 -142470433#3 -142470433#4 142470433#4 142470433#3 142470433#2 142470433#1 550301038" />
    </person>
    <person id="908" depart="908.00">
        <walk edges="142470433#2 142470433#1 550301038 218891289 142470465 142470461 216268744 154607613#1 154607613#0 154607611 775381932 216243708#1 215803157" />
    </person>
    <person id="912" depart="912.00">
        <walk edges="142470460#0 -142470433#2 -142470433#3 -142470433#4 142470433#4 142470433#3 142470433#2 142470433#1 550301038 218891289 142470465 142470461 216268744 154607613#1 154607613#0 154607611 775381932 216243708#1 -159229344#0" />
    </person>
    <person id="930" depart="930.00">
        <walk edges="91731873#1 217691393#0 217691393#1 215803157 -159229344#0" />
    </person>
    <person id="940" depart="940.00">
        <walk edges="28490061#2 28490061#1 775381932 154607611 154607613#0 154607613#1 216268744 142470461 217365458#2 217365458#1 358043015#3 -217365458#0 -217365458#1 -217365458#2" />
    </person>
    <person id="945" depart="945.00">
        <walk edges="217365460#2 154607611 154607613#0 154607613#1 216268744 142470461 217365458#2 217365458#1 358043015#3" />
    </person>
    <person id="947" depart="947.00">
        <walk edges="-142470433#2 -142470433#3 -142470433#4 142470433#4 142470433#3 142470433#2 142470433#1" />
    </person>
    <person id="950" depart="950.00">
        <walk edges="-142470433#2 -142470433#3 -142470433#4 142470433#4 142470433#3 142470433#2 142470433#1 550301038 218891289 142470465 142470461 216268744 154607613#1 154607613#0 154607611 775381932 216243708#1 159229344#0 159229344#0.2 216268747" />
    </person>
    <person id="951" depart="951.00">
        <walk edges="-217365458#1 -217365458#0 358043015#3 217365458#1 217365458#2 142470465 218891289 550301038 142470433#1 142470433#2 142470433#3 142470433#4 -142470433#4 -142470433#3 -142470433#2" />