<?xml version="1.0" encoding="UTF-8"?>

<!-- generated on 05/09/20 18:58:22 by Eclipse SUMO od2trips Version 1.5.0
<configuration xmlns:xsi="http://www.w3.org/2001/XMLSchema-instance" xsi:noNamespaceSchemaLocation="http://sumo.dlr.de/xsd/od2tripsConfiguration.xsd">

    <input>
        <taz-files value="taz.add.xml"/>
        <od-matrix-files value="od_matrix_vissum_o_format.txt"/>
    </input>

    <output>
        <flow-output value="OD_FLOW_DEF.add.xml"/>
    </output>

</configuration>
-->

<routes xmlns:xsi="http://www.w3.org/2001/XMLSchema-instance" xsi:noNamespaceSchemaLocation="http://sumo.dlr.de/xsd/routes_file.xsd">
    <!-- <flow id="0" begin="0.00" end="3600.00" number="100" fromTaz="astrofisico" toTaz="esperanza" departLane="free" departSpeed="max"/>
    <flow id="1" begin="0.00" end="3600.00" number="100" fromTaz="astrofisico" toTaz="geneto" departLane="free" departSpeed="max"/>
    <flow id="2" begin="0.00" end="3600.00" number="100" fromTaz="astrofisico" toTaz="guimera" departLane="free" departSpeed="max"/>
    <flow id="3" begin="0.00" end="3600.00" number="100" fromTaz="astrofisico" toTaz="tf-5_anchieta" departLane="free" departSpeed="max"/>
    <flow id="4" begin="0.00" end="3600.00" number="100" fromTaz="astrofisico" toTaz="tf-5_guajara" departLane="free" departSpeed="max"/>
    <flow id="5" begin="0.00" end="3600.00" number="100" fromTaz="astrofisico" toTaz="trinidad" departLane="free" departSpeed="max"/>
    <flow id="6" begin="0.00" end="3600.00" number="150" fromTaz="esperanza" toTaz="astrofisico" departLane="free" departSpeed="max"/>
    <flow id="7" begin="0.00" end="3600.00" number="100" fromTaz="esperanza" toTaz="geneto" departLane="free" departSpeed="max"/>
    <flow id="8" begin="0.00" end="3600.00" number="100" fromTaz="esperanza" toTaz="guimera" departLane="free" departSpeed="max"/>
    <flow id="9" begin="0.00" end="3600.00" number="250" fromTaz="esperanza" toTaz="tf-5_anchieta" departLane="free" departSpeed="max"/>
    <flow id="10" begin="0.00" end="3600.00" number="200" fromTaz="esperanza" toTaz="tf-5_guajara" departLane="free" departSpeed="max"/>
    <flow id="11" begin="0.00" end="3600.00" number="100" fromTaz="esperanza" toTaz="trinidad" departLane="free" departSpeed="max"/> -->
    <flow id="12" begin="0.00" end="3600.00" number="20" fromTaz="estacion_guaguas" toTaz="guimera" departLane="free" departSpeed="max"/>
    <flow id="13" begin="0.00" end="3600.00" number="20" fromTaz="estacion_guaguas" toTaz="trinidad" departLane="free" departSpeed="max"/>
    <!-- <flow id="14" begin="0.00" end="3600.00" number="100" fromTaz="geneto" toTaz="astrofisico" departLane="free" departSpeed="max"/>
    <flow id="15" begin="0.00" end="3600.00" number="100" fromTaz="geneto" toTaz="esperanza" departLane="free" departSpeed="max"/>
    <flow id="16" begin="0.00" end="3600.00" number="100" fromTaz="geneto" toTaz="guimera" departLane="free" departSpeed="max"/>
    <flow id="17" begin="0.00" end="3600.00" number="100" fromTaz="geneto" toTaz="tf-5_anchieta" departLane="free" departSpeed="max"/>
    <flow id="18" begin="0.00" end="3600.00" number="100" fromTaz="geneto" toTaz="tf-5_guajara" departLane="free" departSpeed="max"/>
    <flow id="19" begin="0.00" end="3600.00" number="100" fromTaz="geneto" toTaz="trinidad" departLane="free" departSpeed="max"/>
    <flow id="20" begin="0.00" end="3600.00" number="150" fromTaz="incorp-tf5" toTaz="astrofisico" departLane="free" departSpeed="max"/>
    <flow id="21" begin="0.00" end="3600.00" number="150" fromTaz="incorp-tf5" toTaz="esperanza" departLane="free" departSpeed="max"/>
    <flow id="22" begin="0.00" end="3600.00" number="150" fromTaz="incorp-tf5" toTaz="geneto" departLane="free" departSpeed="max"/>
    <flow id="23" begin="0.00" end="3600.00" number="150" fromTaz="incorp-tf5" toTaz="guimera" departLane="free" departSpeed="max"/>
    <flow id="24" begin="0.00" end="3600.00" number="150" fromTaz="incorp-tf5" toTaz="tf-5_guajara" departLane="free" departSpeed="max"/>
    <flow id="25" begin="0.00" end="3600.00" number="150" fromTaz="incorp-tf5" toTaz="trinidad" departLane="free" departSpeed="max"/> -->
    <flow id="26" begin="0.00" end="3600.00" number="20" fromTaz="salida_guaguas" toTaz="estacion_guaguas" departLane="free" departSpeed="max"/>
    <flow id="27" begin="0.00" end="3600.00" number="20" fromTaz="salida_guaguas" toTaz="guimera" departLane="free" departSpeed="max"/>
    <!-- <flow id="28" begin="0.00" end="3600.00" number="100" fromTaz="tf-5_anchieta" toTaz="astrofisico" departLane="free" departSpeed="max"/>
    <flow id="29" begin="0.00" end="3600.00" number="100" fromTaz="tf-5_anchieta" toTaz="esperanza" departLane="free" departSpeed="max"/>
    <flow id="30" begin="0.00" end="3600.00" number="100" fromTaz="tf-5_anchieta" toTaz="geneto" departLane="free" departSpeed="max"/>
    <flow id="31" begin="0.00" end="3600.00" number="100" fromTaz="tf-5_anchieta" toTaz="guimera" departLane="free" departSpeed="max"/>
    <flow id="32" begin="0.00" end="3600.00" number="60" fromTaz="tf-5_anchieta" toTaz="tf-5_anchieta" departLane="free" departSpeed="max"/>
    <flow id="33" begin="0.00" end="3600.00" number="3000" fromTaz="tf-5_anchieta" toTaz="tf-5_guajara" departLane="free" departSpeed="max"/>
    <flow id="34" begin="0.00" end="3600.00" number="100" fromTaz="tf-5_anchieta" toTaz="trinidad" departLane="free" departSpeed="max"/>
    <flow id="35" begin="0.00" end="3600.00" number="100" fromTaz="tf-5_guajara" toTaz="astrofisico" departLane="free" departSpeed="max"/>
    <flow id="36" begin="0.00" end="3600.00" number="100" fromTaz="tf-5_guajara" toTaz="esperanza" departLane="free" departSpeed="max"/>
    <flow id="37" begin="0.00" end="3600.00" number="100" fromTaz="tf-5_guajara" toTaz="geneto" departLane="free" departSpeed="max"/>
    <flow id="38" begin="0.00" end="3600.00" number="100" fromTaz="tf-5_guajara" toTaz="guimera" departLane="free" departSpeed="max"/>
    <flow id="39" begin="0.00" end="3600.00" number="3000" fromTaz="tf-5_guajara" toTaz="tf-5_anchieta" departLane="free" departSpeed="max"/>
    <flow id="40" begin="0.00" end="3600.00" number="60" fromTaz="tf-5_guajara" toTaz="tf-5_guajara" departLane="free" departSpeed="max"/>
    <flow id="41" begin="0.00" end="3600.00" number="100" fromTaz="tf-5_guajara" toTaz="trinidad" departLane="free" departSpeed="max"/>
    <flow id="42" begin="0.00" end="3600.00" number="200" fromTaz="trinidad" toTaz="astrofisico" departLane="free" departSpeed="max"/>
    <flow id="43" begin="0.00" end="3600.00" number="200" fromTaz="trinidad" toTaz="esperanza" departLane="free" departSpeed="max"/>
    <flow id="44" begin="0.00" end="3600.00" number="200" fromTaz="trinidad" toTaz="geneto" departLane="free" departSpeed="max"/>
    <flow id="45" begin="0.00" end="3600.00" number="200" fromTaz="trinidad" toTaz="guimera" departLane="free" departSpeed="max"/>
    <flow id="46" begin="0.00" end="3600.00" number="200" fromTaz="trinidad" toTaz="tf-5_anchieta" departLane="free" departSpeed="max"/>
    <flow id="47" begin="0.00" end="3600.00" number="200" fromTaz="trinidad" toTaz="tf-5_guajara" departLane="free" departSpeed="max"/> -->
</routes>
