<?xml version="1.0" encoding="UTF-8"?>

<!-- generated on 05/05/20 20:43:27 by Eclipse SUMO od2trips Version 1.5.0
<configuration xmlns:xsi="http://www.w3.org/2001/XMLSchema-instance" xsi:noNamespaceSchemaLocation="http://sumo.dlr.de/xsd/od2tripsConfiguration.xsd">

    <input>
        <taz-files value="taz.add.xml"/>
        <od-matrix-files value="od_matrix_vissum_o_format.txt"/>
    </input>

    <output>
        <output-file value="OD_OUTPUT.rou.xml"/>
        <flow-output value="OD_FLOW_DEF.add.xml"/>
    </output>

</configuration>
-->

<routes xmlns:xsi="http://www.w3.org/2001/XMLSchema-instance" xsi:noNamespaceSchemaLocation="http://sumo.dlr.de/xsd/routes_file.xsd">
    <trip id="63" depart="0.79" from="216243701" to="217553754" fromTaz="tf-5_anchieta" toTaz="tf-5_guajara" departLane="free" departSpeed="max"/>
    <trip id="7426" depart="1.27" from="216650879" to="215803108" fromTaz="tf-5_guajara" toTaz="tf-5_anchieta" departLane="free" departSpeed="max"/>
    <trip id="11687" depart="1.56" from="216650879" to="215803108" fromTaz="tf-5_guajara" toTaz="tf-5_anchieta" departLane="free" departSpeed="max"/>
    <trip id="9352" depart="1.77" from="216650879" to="215803108" fromTaz="tf-5_guajara" toTaz="tf-5_anchieta" departLane="free" departSpeed="max"/>
    <trip id="3193" depart="1.88" from="216243701" to="217553754" fromTaz="tf-5_anchieta" toTaz="tf-5_guajara" departLane="free" departSpeed="max"/>
    <trip id="283" depart="2.83" from="216243701" to="217553754" fromTaz="tf-5_anchieta" toTaz="tf-5_guajara" departLane="free" departSpeed="max"/>
    <trip id="7797" depart="3.42" from="216650879" to="215803108" fromTaz="tf-5_guajara" toTaz="tf-5_anchieta" departLane="free" departSpeed="max"/>
    <trip id="8636" depart="4.11" from="216650879" to="215803108" fromTaz="tf-5_guajara" toTaz="tf-5_anchieta" departLane="free" departSpeed="max"/>
    <trip id="10815" depart="4.28" from="216650879" to="215803108" fromTaz="tf-5_guajara" toTaz="tf-5_anchieta" departLane="free" departSpeed="max"/>
    <trip id="3028" depart="4.33" from="216243701" to="217553754" fromTaz="tf-5_anchieta" toTaz="tf-5_guajara" departLane="free" departSpeed="max"/>
    <trip id="519" depart="4.77" from="216243701" to="217553754" fromTaz="tf-5_anchieta" toTaz="tf-5_guajara" departLane="free" departSpeed="max"/>
    <trip id="3886" depart="4.80" from="216243701" to="217553754" fromTaz="tf-5_anchieta" toTaz="tf-5_guajara" departLane="free" departSpeed="max"/>
    <trip id="9057" depart="4.89" from="216650879" to="215803108" fromTaz="tf-5_guajara" toTaz="tf-5_anchieta" departLane="free" departSpeed="max"/>
    <trip id="11347" depart="5.21" from="216650879" to="215803108" fromTaz="tf-5_guajara" toTaz="tf-5_anchieta" departLane="free" departSpeed="max"/>
    <trip id="7427" depart="5.67" from="216650879" to="215803108" fromTaz="tf-5_guajara" toTaz="tf-5_anchieta" departLane="free" departSpeed="max"/>
    <trip id="4530" depart="6.04" from="216243701" to="217553754" fromTaz="tf-5_anchieta" toTaz="tf-5_guajara" departLane="free" departSpeed="max"/>
    <trip id="5972" depart="6.68" from="216243701" to="217553754" fromTaz="tf-5_anchieta" toTaz="tf-5_guajara" departLane="free" departSpeed="max"/>
    <trip id="9014" depart="7.04" from="216650879" to="215803108" fromTaz="tf-5_guajara" toTaz="tf-5_anchieta" departLane="free" departSpeed="max"/>
    <trip id="3064" depart="7.36" from="216243701" to="217553754" fromTaz="tf-5_anchieta" toTaz="tf-5_guajara" departLane="free" departSpeed="max"/>
    <trip id="5464" depart="7.63" from="216243701" to="217553754" fromTaz="tf-5_anchieta" toTaz="tf-5_guajara" departLane="free" departSpeed="max"/>
    <trip id="9771" depart="7.77" from="216650879" to="215803108" fromTaz="tf-5_guajara" toTaz="tf-5_anchieta" departLane="free" departSpeed="max"/>
    <trip id="4140" depart="8.70" from="216243701" to="217553754" fromTaz="tf-5_anchieta" toTaz="tf-5_guajara" departLane="free" departSpeed="max"/>
    <trip id="5749" depart="8.97" from="216243701" to="217553754" fromTaz="tf-5_anchieta" toTaz="tf-5_guajara" departLane="free" departSpeed="max"/>
    <trip id="10617" depart="9.11" from="216650879" to="215803108" fromTaz="tf-5_guajara" toTaz="tf-5_anchieta" departLane="free" departSpeed="max"/>
    <trip id="7086" depart="9.39" from="216650879" to="215803108" fromTaz="tf-5_guajara" toTaz="tf-5_anchieta" departLane="free" departSpeed="max"/>
    <trip id="10602" depart="9.75" from="216650879" to="215803108" fromTaz="tf-5_guajara" toTaz="tf-5_anchieta" departLane="free" departSpeed="max"/>
    <trip id="11008" depart="10.34" from="216650879" to="215803108" fromTaz="tf-5_guajara" toTaz="tf-5_anchieta" departLane="free" departSpeed="max"/>
    <trip id="2255" depart="10.87" from="216243701" to="217553754" fromTaz="tf-5_anchieta" toTaz="tf-5_guajara" departLane="free" departSpeed="max"/>
    <trip id="3020" depart="11.00" from="216243701" to="217553754" fromTaz="tf-5_anchieta" toTaz="tf-5_guajara" departLane="free" departSpeed="max"/>
    <trip id="8858" depart="11.03" from="216650879" to="215803108" fromTaz="tf-5_guajara" toTaz="tf-5_anchieta" departLane="free" departSpeed="max"/>
    <trip id="245" depart="11.12" from="216243701" to="217553754" fromTaz="tf-5_anchieta" toTaz="tf-5_guajara" departLane="free" departSpeed="max"/>
    <trip id="2653" depart="11.33" from="216243701" to="217553754" fromTaz="tf-5_anchieta" toTaz="tf-5_guajara" departLane="free" departSpeed="max"/>
    <trip id="2378" depart="11.57" from="216243701" to="217553754" fromTaz="tf-5_anchieta" toTaz="tf-5_guajara" departLane="free" departSpeed="max"/>
    <trip id="4240" depart="11.71" from="216243701" to="217553754" fromTaz="tf-5_anchieta" toTaz="tf-5_guajara" departLane="free" departSpeed="max"/>
    <trip id="6508" depart="11.86" from="216650879" to="215803108" fromTaz="tf-5_guajara" toTaz="tf-5_anchieta" departLane="free" departSpeed="max"/>
    <trip id="8812" depart="12.00" from="216650879" to="215803108" fromTaz="tf-5_guajara" toTaz="tf-5_anchieta" departLane="free" departSpeed="max"/>
    <trip id="4760" depart="12.17" from="216243701" to="217553754" fromTaz="tf-5_anchieta" toTaz="tf-5_guajara" departLane="free" departSpeed="max"/>
    <trip id="8671" depart="13.54" from="216650879" to="215803108" fromTaz="tf-5_guajara" toTaz="tf-5_anchieta" departLane="free" departSpeed="max"/>
    <trip id="1581" depart="14.07" from="216243701" to="217553754" fromTaz="tf-5_anchieta" toTaz="tf-5_guajara" departLane="free" departSpeed="max"/>
    <trip id="10693" depart="14.52" from="216650879" to="215803108" fromTaz="tf-5_guajara" toTaz="tf-5_anchieta" departLane="free" departSpeed="max"/>
    <trip id="10841" depart="14.79" from="216650879" to="215803108" fromTaz="tf-5_guajara" toTaz="tf-5_anchieta" departLane="free" departSpeed="max"/>
    <trip id="11005" depart="15.36" from="216650879" to="215803108" fromTaz="tf-5_guajara" toTaz="tf-5_anchieta" departLane="free" departSpeed="max"/>
    <trip id="6905" depart="15.55" from="216650879" to="215803108" fromTaz="tf-5_guajara" toTaz="tf-5_anchieta" departLane="free" departSpeed="max"/>
    <trip id="6853" depart="15.74" from="216650879" to="215803108" fromTaz="tf-5_guajara" toTaz="tf-5_anchieta" departLane="free" departSpeed="max"/>
    <trip id="6240" depart="15.75" from="216650879" to="215803108" fromTaz="tf-5_guajara" toTaz="tf-5_anchieta" departLane="free" departSpeed="max"/>
    <trip id="2551" depart="15.90" from="216243701" to="217553754" fromTaz="tf-5_anchieta" toTaz="tf-5_guajara" departLane="free" departSpeed="max"/>
    <trip id="1351" depart="16.08" from="216243701" to="217553754" fromTaz="tf-5_anchieta" toTaz="tf-5_guajara" departLane="free" departSpeed="max"/>
    <trip id="3876" depart="16.08" from="216243701" to="217553754" fromTaz="tf-5_anchieta" toTaz="tf-5_guajara" departLane="free" departSpeed="max"/>
    <trip id="88" depart="16.72" from="216243701" to="217553754" fromTaz="tf-5_anchieta" toTaz="tf-5_guajara" departLane="free" departSpeed="max"/>
    <trip id="8430" depart="18.10" from="216650879" to="215803108" fromTaz="tf-5_guajara" toTaz="tf-5_anchieta" departLane="free" departSpeed="max"/>
    <trip id="4616" depart="18.30" from="216243701" to="217553754" fromTaz="tf-5_anchieta" toTaz="tf-5_guajara" departLane="free" departSpeed="max"/>
    <trip id="9" depart="18.39" from="216243701" to="217553754" fromTaz="tf-5_anchieta" toTaz="tf-5_guajara" departLane="free" departSpeed="max"/>
    <trip id="4640" depart="18.64" from="216243701" to="217553754" fromTaz="tf-5_anchieta" toTaz="tf-5_guajara" departLane="free" departSpeed="max"/>
    <trip id="6767" depart="18.68" from="216650879" to="215803108" fromTaz="tf-5_guajara" toTaz="tf-5_anchieta" departLane="free" departSpeed="max"/>
    <trip id="3463" depart="18.86" from="216243701" to="217553754" fromTaz="tf-5_anchieta" toTaz="tf-5_guajara" departLane="free" departSpeed="max"/>
    <trip id="8523" depart="18.86" from="216650879" to="215803108" fromTaz="tf-5_guajara" toTaz="tf-5_anchieta" departLane="free" departSpeed="max"/>
    <trip id="11009" depart="18.93" from="216650879" to="215803108" fromTaz="tf-5_guajara" toTaz="tf-5_anchieta" departLane="free" departSpeed="max"/>
    <trip id="4545" depart="18.94" from="216243701" to="217553754" fromTaz="tf-5_anchieta" toTaz="tf-5_guajara" departLane="free" departSpeed="max"/>
    <trip id="749" depart="18.97" from="216243701" to="217553754" fromTaz="tf-5_anchieta" toTaz="tf-5_guajara" departLane="free" departSpeed="max"/>
    <trip id="9157" depart="19.13" from="216650879" to="215803108" fromTaz="tf-5_guajara" toTaz="tf-5_anchieta" departLane="free" departSpeed="max"/>
    <trip id="9549" depart="19.39" from="216650879" to="215803108" fromTaz="tf-5_guajara" toTaz="tf-5_anchieta" departLane="free" departSpeed="max"/>
    <trip id="412" depart="19.61" from="216243701" to="217553754" fromTaz="tf-5_anchieta" toTaz="tf-5_guajara" departLane="free" departSpeed="max"/>
    <trip id="4912" depart="19.62" from="216243701" to="217553754" fromTaz="tf-5_anchieta" toTaz="tf-5_guajara" departLane="free" departSpeed="max"/>
    <trip id="2525" depart="19.73" from="216243701" to="217553754" fromTaz="tf-5_anchieta" toTaz="tf-5_guajara" departLane="free" departSpeed="max"/>
    <trip id="8778" depart="20.38" from="216650879" to="215803108" fromTaz="tf-5_guajara" toTaz="tf-5_anchieta" departLane="free" departSpeed="max"/>
    <trip id="11746" depart="20.61" from="216650879" to="215803108" fromTaz="tf-5_guajara" toTaz="tf-5_anchieta" departLane="free" departSpeed="max"/>
    <trip id="4638" depart="21.21" from="216243701" to="217553754" fromTaz="tf-5_anchieta" toTaz="tf-5_guajara" departLane="free" departSpeed="max"/>
    <trip id="7955" depart="21.49" from="216650879" to="215803108" fromTaz="tf-5_guajara" toTaz="tf-5_anchieta" departLane="free" departSpeed="max"/>
    <trip id="1599" depart="21.76" from="216243701" to="217553754" fromTaz="tf-5_anchieta" toTaz="tf-5_guajara" departLane="free" departSpeed="max"/>
    <trip id="10572" depart="22.09" from="216650879" to="215803108" fromTaz="tf-5_guajara" toTaz="tf-5_anchieta" departLane="free" departSpeed="max"/>
    <trip id="4652" depart="22.42" from="216243701" to="217553754" fromTaz="tf-5_anchieta" toTaz="tf-5_guajara" departLane="free" departSpeed="max"/>
    <trip id="8045" depart="22.68" from="216650879" to="215803108" fromTaz="tf-5_guajara" toTaz="tf-5_anchieta" departLane="free" departSpeed="max"/>
    <trip id="3045" depart="22.69" from="216243701" to="217553754" fromTaz="tf-5_anchieta" toTaz="tf-5_guajara" departLane="free" departSpeed="max"/>
    <trip id="1397" depart="22.82" from="216243701" to="217553754" fromTaz="tf-5_anchieta" toTaz="tf-5_guajara" departLane="free" departSpeed="max"/>
    <trip id="391" depart="23.05" from="216243701" to="217553754" fromTaz="tf-5_anchieta" toTaz="tf-5_guajara" departLane="free" departSpeed="max"/>
    <trip id="8396" depart="23.34" from="216650879" to="215803108" fromTaz="tf-5_guajara" toTaz="tf-5_anchieta" departLane="free" departSpeed="max"/>
    <trip id="4289" depart="23.87" from="216243701" to="217553754" fromTaz="tf-5_anchieta" toTaz="tf-5_guajara" departLane="free" departSpeed="max"/>
    <trip id="1144" depart="23.89" from="216243701" to="217553754" fromTaz="tf-5_anchieta" toTaz="tf-5_guajara" departLane="free" departSpeed="max"/>
    <trip id="6890" depart="24.09" from="216650879" to="215803108" fromTaz="tf-5_guajara" toTaz="tf-5_anchieta" departLane="free" departSpeed="max"/>
    <trip id="1428" depart="24.44" from="216243701" to="217553754" fromTaz="tf-5_anchieta" toTaz="tf-5_guajara" departLane="free" departSpeed="max"/>
    <trip id="5816" depart="24.61" from="216243701" to="217553754" fromTaz="tf-5_anchieta" toTaz="tf-5_guajara" departLane="free" departSpeed="max"/>
    <trip id="6381" depart="24.78" from="216650879" to="215803108" fromTaz="tf-5_guajara" toTaz="tf-5_anchieta" departLane="free" departSpeed="max"/>
    <trip id="10368" depart="24.79" from="216650879" to="215803108" fromTaz="tf-5_guajara" toTaz="tf-5_anchieta" departLane="free" departSpeed="max"/>
    <trip id="9400" depart="24.99" from="216650879" to="215803108" fromTaz="tf-5_guajara" toTaz="tf-5_anchieta" departLane="free" departSpeed="max"/>
    <trip id="9776" depart="25.12" from="216650879" to="215803108" fromTaz="tf-5_guajara" toTaz="tf-5_anchieta" departLane="free" departSpeed="max"/>
    <trip id="3304" depart="25.12" from="216243701" to="217553754" fromTaz="tf-5_anchieta" toTaz="tf-5_guajara" departLane="free" departSpeed="max"/>
    <trip id="6848" depart="25.34" from="216650879" to="215803108" fromTaz="tf-5_guajara" toTaz="tf-5_anchieta" departLane="free" departSpeed="max"/>
    <trip id="3801" depart="25.71" from="216243701" to="217553754" fromTaz="tf-5_anchieta" toTaz="tf-5_guajara" departLane="free" departSpeed="max"/>
    <trip id="3636" depart="25.74" from="216243701" to="217553754" fromTaz="tf-5_anchieta" toTaz="tf-5_guajara" departLane="free" departSpeed="max"/>
    <trip id="1775" depart="25.86" from="216243701" to="217553754" fromTaz="tf-5_anchieta" toTaz="tf-5_guajara" departLane="free" departSpeed="max"/>
    <trip id="5353" depart="26.95" from="216243701" to="217553754" fromTaz="tf-5_anchieta" toTaz="tf-5_guajara" departLane="free" departSpeed="max"/>
    <trip id="3436" depart="27.26" from="216243701" to="217553754" fromTaz="tf-5_anchieta" toTaz="tf-5_guajara" departLane="free" departSpeed="max"/>
    <trip id="10264" depart="27.33" from="216650879" to="215803108" fromTaz="tf-5_guajara" toTaz="tf-5_anchieta" departLane="free" departSpeed="max"/>
    <trip id="6394" depart="27.62" from="216650879" to="215803108" fromTaz="tf-5_guajara" toTaz="tf-5_anchieta" departLane="free" departSpeed="max"/>
    <trip id="8661" depart="27.79" from="216650879" to="215803108" fromTaz="tf-5_guajara" toTaz="tf-5_anchieta" departLane="free" departSpeed="max"/>
    <trip id="10168" depart="27.92" from="216650879" to="215803108" fromTaz="tf-5_guajara" toTaz="tf-5_anchieta" departLane="free" departSpeed="max"/>
    <trip id="5468" depart="28.04" from="216243701" to="217553754" fromTaz="tf-5_anchieta" toTaz="tf-5_guajara" departLane="free" departSpeed="max"/>
    <trip id="7048" depart="28.74" from="216650879" to="215803108" fromTaz="tf-5_guajara" toTaz="tf-5_anchieta" departLane="free" departSpeed="max"/>
    <trip id="5416" depart="29.39" from="216243701" to="217553754" fromTaz="tf-5_anchieta" toTaz="tf-5_guajara" departLane="free" departSpeed="max"/>
    <trip id="7208" depart="29.51" from="216650879" to="215803108" fromTaz="tf-5_guajara" toTaz="tf-5_anchieta" departLane="free" departSpeed="max"/>
    <trip id="8818" depart="29.57" from="216650879" to="215803108" fromTaz="tf-5_guajara" toTaz="tf-5_anchieta" departLane="free" departSpeed="max"/>
    <trip id="3557" depart="29.89" from="216243701" to="217553754" fromTaz="tf-5_anchieta" toTaz="tf-5_guajara" departLane="free" departSpeed="max"/>
    <trip id="9017" depart="30.29" from="216650879" to="215803108" fromTaz="tf-5_guajara" toTaz="tf-5_anchieta" departLane="free" departSpeed="max"/>
    <trip id="6543" depart="31.39" from="216650879" to="215803108" fromTaz="tf-5_guajara" toTaz="tf-5_anchieta" departLane="free" departSpeed="max"/>
    <trip id="11658" depart="31.65" from="216650879" to="215803108" fromTaz="tf-5_guajara" toTaz="tf-5_anchieta" departLane="free" departSpeed="max"/>
    <trip id="1387" depart="32.14" from="216243701" to="217553754" fromTaz="tf-5_anchieta" toTaz="tf-5_guajara" departLane="free" departSpeed="max"/>
    <trip id="10501" depart="33.77" from="216650879" to="215803108" fromTaz="tf-5_guajara" toTaz="tf-5_anchieta" departLane="free" departSpeed="max"/>
    <trip id="7201" depart="34.38" from="216650879" to="215803108" fromTaz="tf-5_guajara" toTaz="tf-5_anchieta" departLane="free" departSpeed="max"/>
    <trip id="1752" depart="35.00" from="216243701" to="217553754" fromTaz="tf-5_anchieta" toTaz="tf-5_guajara" departLane="free" departSpeed="max"/>
    <trip id="6479" depart="35.30" from="216650879" to="215803108" fromTaz="tf-5_guajara" toTaz="tf-5_anchieta" departLane="free" departSpeed="max"/>
    <trip id="4854" depart="35.81" from="216243701" to="217553754" fromTaz="tf-5_anchieta" toTaz="tf-5_guajara" departLane="free" departSpeed="max"/>
    <trip id="3674" depart="35.90" from="216243701" to="217553754" fromTaz="tf-5_anchieta" toTaz="tf-5_guajara" departLane="free" departSpeed="max"/>
    <trip id="3011" depart="36.22" from="216243701" to="217553754" fromTaz="tf-5_anchieta" toTaz="tf-5_guajara" departLane="free" departSpeed="max"/>
    <trip id="1289" depart="36.35" from="216243701" to="217553754" fromTaz="tf-5_anchieta" toTaz="tf-5_guajara" departLane="free" departSpeed="max"/>
    <trip id="6361" depart="36.52" from="216650879" to="215803108" fromTaz="tf-5_guajara" toTaz="tf-5_anchieta" departLane="free" departSpeed="max"/>
    <trip id="198" depart="36.86" from="216243701" to="217553754" fromTaz="tf-5_anchieta" toTaz="tf-5_guajara" departLane="free" departSpeed="max"/>
    <trip id="9086" depart="37.11" from="216650879" to="215803108" fromTaz="tf-5_guajara" toTaz="tf-5_anchieta" departLane="free" departSpeed="max"/>
    <trip id="2369" depart="37.22" from="216243701" to="217553754" fromTaz="tf-5_anchieta" toTaz="tf-5_guajara" departLane="free" departSpeed="max"/>
    <trip id="7884" depart="37.47" from="216650879" to="215803108" fromTaz="tf-5_guajara" toTaz="tf-5_anchieta" departLane="free" departSpeed="max"/>
    <trip id="2979" depart="37.59" from="216243701" to="217553754" fromTaz="tf-5_anchieta" toTaz="tf-5_guajara" departLane="free" departSpeed="max"/>
    <trip id="526" depart="37.70" from="216243701" to="217553754" fromTaz="tf-5_anchieta" toTaz="tf-5_guajara" departLane="free" departSpeed="max"/>
    <trip id="5158" depart="37.86" from="216243701" to="217553754" fromTaz="tf-5_anchieta" toTaz="tf-5_guajara" departLane="free" departSpeed="max"/>
    <trip id="11147" depart="38.32" from="216650879" to="215803108" fromTaz="tf-5_guajara" toTaz="tf-5_anchieta" departLane="free" departSpeed="max"/>
    <trip id="7278" depart="38.43" from="216650879" to="215803108" fromTaz="tf-5_guajara" toTaz="tf-5_anchieta" departLane="free" departSpeed="max"/>
    <trip id="8497" depart="38.55" from="216650879" to="215803108" fromTaz="tf-5_guajara" toTaz="tf-5_anchieta" departLane="free" departSpeed="max"/>
    <trip id="4343" depart="38.76" from="216243701" to="217553754" fromTaz="tf-5_anchieta" toTaz="tf-5_guajara" departLane="free" departSpeed="max"/>
    <trip id="142" depart="39.03" from="216243701" to="217553754" fromTaz="tf-5_anchieta" toTaz="tf-5_guajara" departLane="free" departSpeed="max"/>
    <trip id="8977" depart="40.02" from="216650879" to="215803108" fromTaz="tf-5_guajara" toTaz="tf-5_anchieta" departLane="free" departSpeed="max"/>
    <trip id="11956" depart="40.18" from="216650879" to="215803108" fromTaz="tf-5_guajara" toTaz="tf-5_anchieta" departLane="free" departSpeed="max"/>
    <trip id="5562" depart="42.04" from="216243701" to="217553754" fromTaz="tf-5_anchieta" toTaz="tf-5_guajara" departLane="free" departSpeed="max"/>
    <trip id="4428" depart="42.17" from="216243701" to="217553754" fromTaz="tf-5_anchieta" toTaz="tf-5_guajara" departLane="free" departSpeed="max"/>
    <trip id="3372" depart="42.24" from="216243701" to="217553754" fromTaz="tf-5_anchieta" toTaz="tf-5_guajara" departLane="free" departSpeed="max"/>
    <trip id="3626" depart="42.31" from="216243701" to="217553754" fromTaz="tf-5_anchieta" toTaz="tf-5_guajara" departLane="free" departSpeed="max"/>
    <trip id="3578" depart="42.40" from="216243701" to="217553754" fromTaz="tf-5_anchieta" toTaz="tf-5_guajara" departLane="free" departSpeed="max"/>
    <trip id="3684" depart="42.53" from="216243701" to="217553754" fromTaz="tf-5_anchieta" toTaz="tf-5_guajara" departLane="free" departSpeed="max"/>
    <trip id="6433" depart="42.57" from="216650879" to="215803108" fromTaz="tf-5_guajara" toTaz="tf-5_anchieta" departLane="free" departSpeed="max"/>
    <trip id="9583" depart="43.24" from="216650879" to="215803108" fromTaz="tf-5_guajara" toTaz="tf-5_anchieta" departLane="free" departSpeed="max"/>
    <trip id="4732" depart="43.31" from="216243701" to="217553754" fromTaz="tf-5_anchieta" toTaz="tf-5_guajara" departLane="free" departSpeed="max"/>
    <trip id="7993" depart="43.53" from="216650879" to="215803108" fromTaz="tf-5_guajara" toTaz="tf-5_anchieta" departLane="free" departSpeed="max"/>
    <trip id="9191" depart="43.54" from="216650879" to="215803108" fromTaz="tf-5_guajara" toTaz="tf-5_anchieta" departLane="free" departSpeed="max"/>
    <trip id="6351" depart="44.44" from="216650879" to="215803108" fromTaz="tf-5_guajara" toTaz="tf-5_anchieta" departLane="free" departSpeed="max"/>
    <trip id="1416" depart="44.99" from="216243701" to="217553754" fromTaz="tf-5_anchieta" toTaz="tf-5_guajara" departLane="free" departSpeed="max"/>
    <trip id="4704" depart="46.74" from="216243701" to="217553754" fromTaz="tf-5_anchieta" toTaz="tf-5_guajara" departLane="free" departSpeed="max"/>
    <trip id="3768" depart="46.80" from="216243701" to="217553754" fromTaz="tf-5_anchieta" toTaz="tf-5_guajara" departLane="free" departSpeed="max"/>
    <trip id="2858" depart="46.85" from="216243701" to="217553754" fromTaz="tf-5_anchieta" toTaz="tf-5_guajara" departLane="free" departSpeed="max"/>
    <trip id="571" depart="46.90" from="216243701" to="217553754" fromTaz="tf-5_anchieta" toTaz="tf-5_guajara" departLane="free" departSpeed="max"/>
    <trip id="3658" depart="47.47" from="216243701" to="217553754" fromTaz="tf-5_anchieta" toTaz="tf-5_guajara" departLane="free" departSpeed="max"/>
    <trip id="772" depart="47.95" from="216243701" to="217553754" fromTaz="tf-5_anchieta" toTaz="tf-5_guajara" departLane="free" departSpeed="max"/>
    <trip id="9257" depart="48.04" from="216650879" to="215803108" fromTaz="tf-5_guajara" toTaz="tf-5_anchieta" departLane="free" departSpeed="max"/>
    <trip id="5984" depart="48.47" from="216243701" to="217553754" fromTaz="tf-5_anchieta" toTaz="tf-5_guajara" departLane="free" departSpeed="max"/>
    <trip id="5838" depart="48.54" from="216243701" to="217553754" fromTaz="tf-5_anchieta" toTaz="tf-5_guajara" departLane="free" departSpeed="max"/>
    <trip id="7727" depart="48.92" from="216650879" to="215803108" fromTaz="tf-5_guajara" toTaz="tf-5_anchieta" departLane="free" departSpeed="max"/>
    <trip id="1244" depart="49.05" from="216243701" to="217553754" fromTaz="tf-5_anchieta" toTaz="tf-5_guajara" departLane="free" departSpeed="max"/>
    <trip id="2387" depart="49.06" from="216243701" to="217553754" fromTaz="tf-5_anchieta" toTaz="tf-5_guajara" departLane="free" departSpeed="max"/>
    <trip id="4900" depart="49.06" from="216243701" to="217553754" fromTaz="tf-5_anchieta" toTaz="tf-5_guajara" departLane="free" departSpeed="max"/>
    <trip id="2343" depart="49.22" from="216243701" to="217553754" fromTaz="tf-5_anchieta" toTaz="tf-5_guajara" departLane="free" departSpeed="max"/>
    <trip id="4435" depart="49.85" from="216243701" to="217553754" fromTaz="tf-5_anchieta" toTaz="tf-5_guajara" departLane="free" departSpeed="max"/>
    <trip id="2862" depart="49.86" from="216243701" to="217553754" fromTaz="tf-5_anchieta" toTaz="tf-5_guajara" departLane="free" departSpeed="max"/>
    <trip id="8571" depart="50.02" from="216650879" to="215803108" fromTaz="tf-5_guajara" toTaz="tf-5_anchieta" departLane="free" departSpeed="max"/>
    <trip id="4958" depart="50.43" from="216243701" to="217553754" fromTaz="tf-5_anchieta" toTaz="tf-5_guajara" departLane="free" departSpeed="max"/>
    <trip id="11679" depart="50.55" from="216650879" to="215803108" fromTaz="tf-5_guajara" toTaz="tf-5_anchieta" departLane="free" departSpeed="max"/>
    <trip id="4035" depart="50.70" from="216243701" to="217553754" fromTaz="tf-5_anchieta" toTaz="tf-5_guajara" departLane="free" departSpeed="max"/>
    <trip id="10516" depart="50.76" from="216650879" to="215803108" fromTaz="tf-5_guajara" toTaz="tf-5_anchieta" departLane="free" departSpeed="max"/>
    <trip id="10800" depart="51.06" from="216650879" to="215803108" fromTaz="tf-5_guajara" toTaz="tf-5_anchieta" departLane="free" departSpeed="max"/>
    <trip id="1446" depart="51.33" from="216243701" to="217553754" fromTaz="tf-5_anchieta" toTaz="tf-5_guajara" departLane="free" departSpeed="max"/>
    <trip id="11127" depart="51.99" from="216650879" to="215803108" fromTaz="tf-5_guajara" toTaz="tf-5_anchieta" departLane="free" departSpeed="max"/>
    <trip id="10947" depart="52.41" from="216650879" to="215803108" fromTaz="tf-5_guajara" toTaz="tf-5_anchieta" departLane="free" departSpeed="max"/>
    <trip id="3152" depart="52.62" from="216243701" to="217553754" fromTaz="tf-5_anchieta" toTaz="tf-5_guajara" departLane="free" departSpeed="max"/>
    <trip id="11296" depart="52.63" from="216650879" to="215803108" fromTaz="tf-5_guajara" toTaz="tf-5_anchieta" departLane="free" departSpeed="max"/>
    <trip id="11043" depart="53.20" from="216650879" to="215803108" fromTaz="tf-5_guajara" toTaz="tf-5_anchieta" departLane="free" departSpeed="max"/>
    <trip id="3570" depart="53.26" from="216243701" to="217553754" fromTaz="tf-5_anchieta" toTaz="tf-5_guajara" departLane="free" departSpeed="max"/>
    <trip id="8959" depart="53.54" from="216650879" to="215803108" fromTaz="tf-5_guajara" toTaz="tf-5_anchieta" departLane="free" departSpeed="max"/>
    <trip id="3452" depart="53.56" from="216243701" to="217553754" fromTaz="tf-5_anchieta" toTaz="tf-5_guajara" departLane="free" departSpeed="max"/>
    <trip id="1677" depart="53.94" from="216243701" to="217553754" fromTaz="tf-5_anchieta" toTaz="tf-5_guajara" departLane="free" departSpeed="max"/>
    <trip id="11494" depart="53.95" from="216650879" to="215803108" fromTaz="tf-5_guajara" toTaz="tf-5_anchieta" departLane="free" departSpeed="max"/>
    <trip id="4909" depart="54.11" from="216243701" to="217553754" fromTaz="tf-5_anchieta" toTaz="tf-5_guajara" departLane="free" departSpeed="max"/>
    <trip id="11712" depart="54.12" from="216650879" to="215803108" fromTaz="tf-5_guajara" toTaz="tf-5_anchieta" departLane="free" departSpeed="max"/>
    <trip id="6340" depart="54.38" from="216650879" to="215803108" fromTaz="tf-5_guajara" toTaz="tf-5_anchieta" departLane="free" departSpeed="max"/>
    <trip id="543" depart="54.47" from="216243701" to="217553754" fromTaz="tf-5_anchieta" toTaz="tf-5_guajara" departLane="free" departSpeed="max"/>
    <trip id="11660" depart="54.69" from="216650879" to="215803108" fromTaz="tf-5_guajara" toTaz="tf-5_anchieta" departLane="free" departSpeed="max"/>
    <trip id="1950" depart="55.13" from="216243701" to="217553754" fromTaz="tf-5_anchieta" toTaz="tf-5_guajara" departLane="free" departSpeed="max"/>
    <trip id="1327" depart="55.39" from="216243701" to="217553754" fromTaz="tf-5_anchieta" toTaz="tf-5_guajara" departLane="free" departSpeed="max"/>
    <trip id="4942" depart="55.54" from="216243701" to="217553754" fromTaz="tf-5_anchieta" toTaz="tf-5_guajara" departLane="free" departSpeed="max"/>
    <trip id="5" depart="55.65" from="216243701" to="217553754" fromTaz="tf-5_anchieta" toTaz="tf-5_guajara" departLane="free" departSpeed="max"/>
    <trip id="2792" depart="55.81" from="216243701" to="217553754" fromTaz="tf-5_anchieta" toTaz="tf-5_guajara" departLane="free" departSpeed="max"/>
    <trip id="3394" depart="56.04" from="216243701" to="217553754" fromTaz="tf-5_anchieta" toTaz="tf-5_guajara" departLane="free" departSpeed="max"/>
    <trip id="10192" depart="56.11" from="216650879" to="215803108" fromTaz="tf-5_guajara" toTaz="tf-5_anchieta" departLane="free" departSpeed="max"/>
    <trip id="10760" depart="56.26" from="216650879" to="215803108" fromTaz="tf-5_guajara" toTaz="tf-5_anchieta" departLane="free" departSpeed="max"/>
    <trip id="1872" depart="56.27" from="216243701" to="217553754" fromTaz="tf-5_anchieta" toTaz="tf-5_guajara" departLane="free" departSpeed="max"/>
    <trip id="11742" depart="56.70" from="216650879" to="215803108" fromTaz="tf-5_guajara" toTaz="tf-5_anchieta" departLane="free" departSpeed="max"/>
    <trip id="6911" depart="57.81" from="216650879" to="215803108" fromTaz="tf-5_guajara" toTaz="tf-5_anchieta" departLane="free" departSpeed="max"/>
    <trip id="7543" depart="58.17" from="216650879" to="215803108" fromTaz="tf-5_guajara" toTaz="tf-5_anchieta" departLane="free" departSpeed="max"/>
    <trip id="2733" depart="58.71" from="216243701" to="217553754" fromTaz="tf-5_anchieta" toTaz="tf-5_guajara" departLane="free" departSpeed="max"/>
    <trip id="3348" depart="58.83" from="216243701" to="217553754" fromTaz="tf-5_anchieta" toTaz="tf-5_guajara" departLane="free" departSpeed="max"/>
    <trip id="6750" depart="58.89" from="216650879" to="215803108" fromTaz="tf-5_guajara" toTaz="tf-5_anchieta" departLane="free" departSpeed="max"/>