<?xml version="1.0" encoding="UTF-8"?>

<!-- generated on 04/30/20 10:14:10 by Eclipse SUMO netedit Version 1.5.0
<configuration xmlns:xsi="http://www.w3.org/2001/XMLSchema-instance" xsi:noNamespaceSchemaLocation="http://sumo.dlr.de/xsd/netconvertConfiguration.xsd">

    <input>
        <sumo-net-file value="anchieta.net.xml"/>
    </input>

    <output>
        <output-file value="anchieta.net.xml"/>
    </output>

    <processing>
        <geometry.min-radius.fix.railways value="false"/>
        <geometry.max-grade.fix value="false"/>
        <offset.disable-normalization value="true"/>
        <lefthand value="false"/>
    </processing>

    <junctions>
        <no-internal-links value="false"/>
        <no-turnarounds value="true"/>
        <junctions.corner-detail value="5"/>
        <junctions.limit-turn-speed value="5.5"/>
        <rectangular-lane-cut value="false"/>
    </junctions>

    <pedestrian>
        <walkingareas value="false"/>
    </pedestrian>

    <netedit>
        <route-files value="C:\Users\Francisco%20Cruz\Repositorios\traffic-light-scheduling-ga\assets\anchieta_v2_small\data\rutas_manuales.rou.xml"/>
    </netedit>

    <report>
        <aggregate-warnings value="5"/>
    </report>

</configuration>
-->

<routes xmlns:xsi="http://www.w3.org/2001/XMLSchema-instance" xsi:noNamespaceSchemaLocation="http://sumo.dlr.de/xsd/routes_file.xsd">
    <route edges="358043015#3 217365458#1 217365458#2 142470465 218891289 -109573928#1.8" color="yellow" id="route_0"/>
    <route edges="109573928#1 550301038 142470433#1 142470433#2 142470433#3 142470433#4" color="yellow" id="route_1"/>
    <route edges="109573928#1 550301038 218745680 217691393#0 217691393#1 215803157 216243708#1 220346965 154607611 28306819#0 28306819#1 28306819#2 215803177 217912067 215803108" color="yellow" id="route_10"/>
    <route edges="109573928#1 550301038 218745680 217691393#0 217691393#1 215803157 216243708#1 220346965 154607611 154607613#0 154607613#1 216268744 142470461 -217365458#2 -217365458#1 -217365458#0" color="yellow" id="route_11"/>
    <route edges="-142470433#4 -142470433#3 -142470433#2 142470460#0 142470460#1 449288818#0 449288818#1 100829406 217691379-AddedOnRampEdge 217691379 216657562 216657562-AddedOffRampEdge 217553754" color="yellow" id="route_12"/>
    <route edges="-142470433#4 -142470433#3 -142470433#2 -142470433#1 218745680 217691393#0 217691393#1 215803157 159229344#0 159229344#0.2 142470423#0 142470423#1 142470423#2" color="yellow" id="route_13"/>
    <route edges="-142470433#4 -142470433#3 -142470433#2 -142470433#1 218745680 217691393#0 217691393#1 215803157 216243708#1 28490061#1 28490061#2" color="yellow" id="route_14"/>
    <route edges="-142470433#4 -142470433#3 -142470433#2 -142470433#1 218745680 217691393#0 217691393#1 215803157 216243708#1 220346965 154607611 28306819#0 28306819#1 28306819#2 215803177 217912067 215803108" color="yellow" id="route_15"/>
    <route edges="-142470433#4 -142470433#3 -142470433#2 -142470433#1 218745680 217691393#0 217691393#1 215803157 216243708#1 220346965 154607611 154607613#0 154607613#1 216268744 142470461 -217365458#2 -217365458#1 -217365458#0" color="yellow" id="route_16"/>
    <route edges="-142470433#4 -142470433#3 -142470433#2 -142470433#1 218745680 217691393#0 217691393#1 215803157 216243708#1 220346965 154607611 154607613#0 154607613#1 216268744 142470445 218891289 -109573928#1.8" color="yellow" id="route_17"/>
    <route edges="216650879 101005127.269 101005127.341 101005127.417 775381929 28306817 215803174#0 215803157 159229344#0 159229344#0.2 142470423#0 142470423#1 142470423#2" color="yellow" id="route_18"/>
    <route edges="216650879 101005127.269 101005127.341 101005127.417 775381929 28306817 215803174#0 215803157 216243708#1 28490061#1 28490061#2" color="yellow" id="route_19"/>
    <route edges="358043015#3 217365458#1 217365458#2 142470465 218891289 550301038 142470433#1 142470433#2 142470433#3 142470433#4" color="yellow" id="route_2"/>
    <route edges="216650879 101005127.269 101005127.341 101005127.417 101005127.504 101005127.945 217912067 215803108" color="yellow" id="route_20"/>
    <route edges="216650879 101005127.269 101005127.341 101005127.417 775381929 28306817 215803174#0 215803157 216243708#1 220346965 154607611 154607613#0 154607613#1 216268744 142470461 -217365458#2 -217365458#1 -217365458#0" color="yellow" id="route_21"/>
    <route edges="216650879 101005127.269 101005127.341 101005127.417 775381929 28306817 215803174#0 215803157 216243708#1 220346965 154607611 154607613#0 154607613#1 216268744 142470445 218891289 -109573928#1.8" color="yellow" id="route_22"/>
    <route edges="216650879 101005127.269 101005127.341 101005127.417 775381929 28306817 215803174#0 215803157 216243708#1 220346965 154607611 154607613#0 154607613#1 216268744 142470445 218891289 550301038 142470433#1 142470433#2 142470433#3 142470433#4" color="yellow" id="route_23"/>
    <route edges="216650879 101005127.269 101005127.341 101005127.417 775381929 28306817 215803174#0 215803157 216243708#1 220346965 154607611 154607613#0 154607613#1 216268744 142470445 218891289 550301038 142470433#1 142470433#2 142470433#3 142470433#4" color="yellow" id="route_24"/>
    <route edges="216243701 216243701-AddedOffRampEdge 100594724 27528360 362088243#1 -217365458#2 -217365458#1 -217365458#0" color="yellow" id="route_25"/>
    <route edges="216243701 216243701-AddedOffRampEdge 100594724 359358942#0 359358942#1 216268744 142470445 218891289 -109573928#1.8" color="yellow" id="route_26"/>
    <route edges="216243701 216243701-AddedOffRampEdge 100594724 359358942#0 359358942#1 216268744 142470445 218891289 550301038 142470433#1 142470433#2 142470433#3 142470433#4" color="yellow" id="route_27"/>
    <route edges="216243701 216243701-AddedOffRampEdge 216243700 216243700.351 217691379-AddedOnRampEdge 217691379 216657562 216657562-AddedOffRampEdge 217553754" color="yellow" id="route_28"/>
    <route edges="216243701 216243701-AddedOffRampEdge 100594724 359358942#0 359358942#1 216268744 142470445 218891289 550301038 218745680 217691393#0 217691393#1 215803157 159229344#0 159229344#0.2 142470423#0 142470423#1 142470423#2" color="yellow" id="route_29"/>
    <route edges="358043015#3 217365458#1 217365458#2 142470465 218891289 550301038 218745680 91731873#1 449288818#0 449288818#1 100829406 217691379-AddedOnRampEdge 217691379 216657562 216657562-AddedOffRampEdge 217553754" color="yellow" id="route_3"/>
    <route edges="216243701 216243701-AddedOffRampEdge 100594724 359358942#0 359358942#1 216268744 142470445 218891289 550301038 218745680 217691393#0 217691393#1 215803157 216243708#1 28490061#1 28490061#2" color="yellow" id="route_30"/>
    <route edges="217365460#0 25567763#0 200890620#0 200890620#1 28306819#2 215803177 217912067 215803108" color="yellow" id="route_31"/>
    <route edges="217365460#0 217365460#1 217365460#2 154607611 154607613#0 154607613#1 216268744 142470461 -217365458#2 -217365458#1 -217365458#0" color="yellow" id="route_32"/>
    <route edges="217365460#0 217365460#1 217365460#2 154607611 154607613#0 154607613#1 216268744 142470445 218891289 -109573928#1.8" color="yellow" id="route_33"/>
    <route edges="217365460#0 217365460#1 217365460#2 154607611 154607613#0 154607613#1 216268744 142470445 218891289 550301038 142470433#1 142470433#2 142470433#3 142470433#4" color="yellow" id="route_34"/>
    <route edges="217365460#0 217365460#1 217365460#2 154607611 154607613#0 154607613#1 216268744 142470445 218891289 550301038 218745680 91731873#1 449288818#0 449288818#1 100829406 217691379-AddedOnRampEdge 217691379 216657562 216657562-AddedOffRampEdge 217553754" color="yellow" id="route_35"/>
    <route edges="217365460#0 217365460#1 217365460#2 154607611 154607613#0 154607613#1 216268744 142470445 218891289 550301038 218745680 217691393#0 217691393#1 215803157 159229344#0 159229344#0.2 142470423#0 142470423#1 142470423#2" color="yellow" id="route_36"/>
    <route edges="80925648 100829418 100829422 101005127.269 101005127.341 101005127.417 775381929 28306817 215803174#0 215803157 216243708#1 220346965 154607611 154607613#0 154607613#1 216268744 142470461 -217365458#2 -217365458#1 -217365458#0" color="yellow" id="route_37"/>
    <route edges="80925648 100829418 100829422 101005127.269 101005127.341 101005127.417 101005127.504 101005127.945 217912067 215803108" color="yellow" id="route_38"/>
    <route edges="80925648 100829418 100829422 101005127.269 101005127.341 101005127.417 775381929 28306817 215803174#0 215803157 216243708#1 220346965 154607611 154607613#0 154607613#1 216268744 142470445 218891289 -109573928#1.8" color="yellow" id="route_39"/>
    <route edges="358043015#3 217365458#1 217365458#2 142470465 218891289 550301038 218745680 217691393#0 217691393#1 215803157 159229344#0 159229344#0.2 142470423#0 142470423#1 142470423#2" color="yellow" id="route_4"/>
    <route edges="80925648 100829418 100829422 101005127.269 101005127.341 101005127.417 775381929 28306817 215803174#0 215803157 216243708#1 28490061#1 28490061#2" color="yellow" id="route_40"/>
    <route edges="80925648 100829418 100829422 101005127.269 101005127.341 101005127.417 775381929 28306817 215803174#0 215803157 216243708#1 220346965 154607611 154607613#0 154607613#1 216268744 142470445 218891289 550301038 142470433#1 142470433#2 142470433#3 142470433#4" color="yellow" id="route_41"/>
    <route edges="358043015#3 217365458#1 217365458#2 142470465 218891289 550301038 218745680 217691393#0 217691393#1 215803157 216243708#1 28490061#1 28490061#2" color="yellow" id="route_5"/>
    <route edges="358043015#3 217365458#1 217365458#2 142470465 218891289 550301038 218745680 217691393#0 217691393#1 215803157 216243708#1 220346965 154607611 28306819#0 28306819#1 28306819#2 215803177 217912067 215803108" color="yellow" id="route_6"/>
    <route edges="109573928#1 550301038 218745680 91731873#1 449288818#0 449288818#1 100829406 217691379-AddedOnRampEdge 217691379 216657562 216657562-AddedOffRampEdge 217553754" color="yellow" id="route_7"/>
    <route edges="109573928#1 550301038 218745680 217691393#0 217691393#1 215803157 159229344#0 159229344#0.2 142470423#0 142470423#1 142470423#2" color="yellow" id="route_8"/>
    <route edges="109573928#1 550301038 218745680 217691393#0 217691393#1 215803157 216243708#1 28490061#1 28490061#2" color="yellow" id="route_9"/>
</routes>
