<?xml version="1.0" encoding="UTF-8"?>

<!-- generated on 04/30/20 09:29:04 by Eclipse SUMO netedit Version 1.5.0
<configuration xmlns:xsi="http://www.w3.org/2001/XMLSchema-instance" xsi:noNamespaceSchemaLocation="http://sumo.dlr.de/xsd/netconvertConfiguration.xsd">

    <input>
        <sumo-net-file value="anchieta.net.xml"/>
    </input>

    <output>
        <output-file value="anchieta.net.xml"/>
    </output>

    <processing>
        <geometry.min-radius.fix.railways value="false"/>
        <geometry.max-grade.fix value="false"/>
        <offset.disable-normalization value="true"/>
        <lefthand value="false"/>
    </processing>

    <junctions>
        <no-internal-links value="false"/>
        <no-turnarounds value="true"/>
        <junctions.corner-detail value="5"/>
        <junctions.limit-turn-speed value="5.5"/>
        <rectangular-lane-cut value="false"/>
    </junctions>

    <pedestrian>
        <walkingareas value="false"/>
    </pedestrian>

    <netedit>
        <route-files value="C:\Users\Francisco%20Cruz\Repositorios\traffic-light-scheduling-ga\assets\anchieta_v2_small\data\TEST.rou.xml"/>
    </netedit>

    <report>
        <aggregate-warnings value="5"/>
    </report>

</configuration>
-->

<routes xmlns:xsi="http://www.w3.org/2001/XMLSchema-instance" xsi:noNamespaceSchemaLocation="http://sumo.dlr.de/xsd/routes_file.xsd">
    <route edges="358043015#3 217365458#1 217365458#2 142470465 218891289 550301038 218745680 91731873#1 449288818#0 449288818#1 100829406 217691379-AddedOnRampEdge 217691379 216657562 216657562-AddedOffRampEdge 217553754" color="yellow" id="route_0"/>
    <route edges="217365460#0 25567763#0 200890620#0 200890620#1 28306819#2 215803177 217912067 215803108" color="yellow" id="route_1"/>
    <route edges="109573928#1 550301038 218745680 91731873#1 449288818#0 449288818#1 100829406 217691379-AddedOnRampEdge 217691379 216657562 216657562-AddedOffRampEdge 217553754" color="yellow" id="tf-5-norte_astrofisico"/>
    <vehicle id="vehicle_0" depart="0.00" route="route_1"/>
    <vehicle id="vehicle_1" depart="0.00" route="route_1"/>
    <vehicle id="vehicle_10" depart="0.00" route="route_1"/>
    <vehicle id="vehicle_11" depart="0.00" route="route_1"/>
    <vehicle id="vehicle_12" depart="0.00" route="route_1"/>
    <vehicle id="vehicle_13" depart="0.00" route="route_1"/>
    <vehicle id="vehicle_14" depart="0.00" route="route_1"/>
    <vehicle id="vehicle_15" depart="0.00" route="route_1"/>
    <vehicle id="vehicle_16" depart="0.00" route="route_1"/>
    <vehicle id="vehicle_17" depart="0.00" route="route_1"/>
    <vehicle id="vehicle_18" depart="0.00" route="route_1"/>
    <vehicle id="vehicle_19" depart="0.00" route="route_1"/>
    <vehicle id="vehicle_2" depart="0.00" route="route_1"/>
    <vehicle id="vehicle_20" depart="0.00" route="route_1"/>
    <vehicle id="vehicle_21" depart="0.00" route="route_1"/>
    <vehicle id="vehicle_22" depart="0.00" route="route_1"/>
    <vehicle id="vehicle_23" depart="0.00" route="route_1"/>
    <vehicle id="vehicle_24" depart="0.00" route="route_1"/>
    <vehicle id="vehicle_25" depart="0.00" route="route_1"/>
    <vehicle id="vehicle_26" depart="0.00" route="route_1"/>
    <vehicle id="vehicle_27" depart="0.00" route="route_1"/>
    <vehicle id="vehicle_28" depart="0.00" route="route_1"/>
    <vehicle id="vehicle_29" depart="0.00" route="route_1"/>
    <vehicle id="vehicle_3" depart="0.00" route="route_1"/>
    <vehicle id="vehicle_30" depart="0.00" route="route_1"/>
    <vehicle id="vehicle_31" depart="0.00" route="route_1"/>
    <vehicle id="vehicle_32" depart="0.00" route="route_1"/>
    <vehicle id="vehicle_33" depart="0.00" route="route_1"/>
    <vehicle id="vehicle_34" depart="0.00" route="route_1"/>
    <vehicle id="vehicle_35" depart="0.00" route="route_1"/>
    <vehicle id="vehicle_36" depart="0.00" route="route_1"/>
    <vehicle id="vehicle_37" depart="0.00" route="route_1"/>
    <vehicle id="vehicle_38" depart="0.00" route="route_1"/>
    <vehicle id="vehicle_4" depart="0.00" route="route_1"/>
    <vehicle id="vehicle_5" depart="0.00" route="route_1"/>
    <vehicle id="vehicle_6" depart="0.00" route="route_1"/>
    <vehicle id="vehicle_7" depart="0.00" route="route_1"/>
    <vehicle id="vehicle_8" depart="0.00" route="route_1"/>
    <vehicle id="vehicle_9" depart="0.00" route="route_1"/>
</routes>
