<?xml version="1.0" encoding="UTF-8"?>

<!-- generated on 03/09/20 19:57:35 by Eclipse SUMO netedit Version 1.5.0
<configuration xmlns:xsi="http://www.w3.org/2001/XMLSchema-instance" xsi:noNamespaceSchemaLocation="http://sumo.dlr.de/xsd/netconvertConfiguration.xsd">

    <input>
        <sumo-net-file value="anchieta.net.xml"/>
    </input>

    <output>
        <output-file value="anchieta.net.xml"/>
    </output>

    <processing>
        <geometry.min-radius.fix.railways value="false"/>
        <geometry.max-grade.fix value="false"/>
        <offset.disable-normalization value="true"/>
        <lefthand value="false"/>
    </processing>

    <junctions>
        <no-turnarounds value="true"/>
        <junctions.corner-detail value="5"/>
        <junctions.limit-turn-speed value="5.5"/>
        <rectangular-lane-cut value="false"/>
    </junctions>

    <pedestrian>
        <walkingareas value="false"/>
    </pedestrian>

    <report>
        <aggregate-warnings value="5"/>
    </report>

</configuration>
-->

<net version="1.3" junctionCornerDetail="5" limitTurnSpeed="5.50" xmlns:xsi="http://www.w3.org/2001/XMLSchema-instance" xsi:noNamespaceSchemaLocation="http://sumo.dlr.de/xsd/net_file.xsd">

    <location netOffset="-369896.65,-3149637.98" convBoundary="372.49,443.41,2072.76,2219.02" origBoundary="-16.329101,28.467015,-16.307346,28.487001" projParameter="+proj=utm +zone=28 +ellps=WGS84 +datum=WGS84 +units=m +no_defs"/>

    <type id="highway.bridleway" priority="1" numLanes="1" speed="2.78" allow="pedestrian" oneway="1" width="2.00"/>
    <type id="highway.bus_guideway" priority="1" numLanes="1" speed="27.78" allow="bus" oneway="1"/>
    <type id="highway.cycleway" priority="1" numLanes="1" speed="8.33" allow="bicycle" oneway="0" width="1.00"/>
    <type id="highway.footway" priority="1" numLanes="1" speed="2.78" allow="pedestrian" oneway="1" width="2.00"/>
    <type id="highway.ford" priority="1" numLanes="1" speed="2.78" allow="army" oneway="0"/>
    <type id="highway.living_street" priority="2" numLanes="1" speed="2.78" disallow="tram rail_urban rail rail_electric rail_fast ship" oneway="0"/>
    <type id="highway.motorway" priority="14" numLanes="2" speed="39.44" allow="private emergency authority army vip passenger hov taxi bus coach delivery truck trailer motorcycle evehicle custom1 custom2" oneway="1"/>
    <type id="highway.motorway_link" priority="9" numLanes="1" speed="22.22" allow="private emergency authority army vip passenger hov taxi bus coach delivery truck trailer motorcycle evehicle custom1 custom2" oneway="1"/>
    <type id="highway.path" priority="1" numLanes="1" speed="2.78" allow="pedestrian bicycle" oneway="1" width="2.00"/>
    <type id="highway.pedestrian" priority="1" numLanes="1" speed="2.78" allow="pedestrian" oneway="1" width="2.00"/>
    <type id="highway.primary" priority="12" numLanes="2" speed="27.78" disallow="pedestrian tram rail_urban rail rail_electric rail_fast ship" oneway="0" sidewalkWidth="3.00"/>
    <type id="highway.primary_link" priority="7" numLanes="1" speed="22.22" disallow="pedestrian tram rail_urban rail rail_electric rail_fast ship" oneway="0" sidewalkWidth="3.00"/>
    <type id="highway.raceway" priority="15" numLanes="2" speed="83.33" allow="vip" oneway="0"/>
    <type id="highway.residential" priority="3" numLanes="1" speed="13.89" disallow="pedestrian tram rail_urban rail rail_electric rail_fast ship" oneway="0" sidewalkWidth="2.00"/>
    <type id="highway.secondary" priority="11" numLanes="1" speed="27.78" disallow="pedestrian tram rail_urban rail rail_electric rail_fast ship" oneway="0" sidewalkWidth="3.00"/>
    <type id="highway.secondary_link" priority="6" numLanes="1" speed="22.22" disallow="pedestrian tram rail_urban rail rail_electric rail_fast ship" oneway="0" sidewalkWidth="3.00"/>
    <type id="highway.service" priority="1" numLanes="1" speed="5.56" allow="pedestrian delivery bicycle" oneway="0"/>
    <type id="highway.stairs" priority="1" numLanes="1" speed="1.39" allow="pedestrian" oneway="1" width="2.00"/>
    <type id="highway.step" priority="1" numLanes="1" speed="1.39" allow="pedestrian" oneway="1" width="2.00"/>
    <type id="highway.steps" priority="1" numLanes="1" speed="1.39" allow="pedestrian" oneway="1" width="2.00"/>
    <type id="highway.tertiary" priority="10" numLanes="1" speed="22.22" disallow="pedestrian tram rail_urban rail rail_electric rail_fast ship" oneway="0" sidewalkWidth="3.00"/>
    <type id="highway.tertiary_link" priority="5" numLanes="1" speed="22.22" disallow="pedestrian tram rail_urban rail rail_electric rail_fast ship" oneway="0" sidewalkWidth="2.00"/>
    <type id="highway.track" priority="1" numLanes="1" speed="5.56" disallow="tram rail_urban rail rail_electric rail_fast ship" oneway="0"/>
    <type id="highway.trunk" priority="13" numLanes="2" speed="27.78" disallow="pedestrian bicycle tram rail_urban rail rail_electric rail_fast ship" oneway="0"/>
    <type id="highway.trunk_link" priority="8" numLanes="1" speed="22.22" disallow="pedestrian bicycle tram rail_urban rail rail_electric rail_fast ship" oneway="0"/>
    <type id="highway.unclassified" priority="4" numLanes="1" speed="13.89" disallow="pedestrian tram rail_urban rail rail_electric rail_fast ship" oneway="0" sidewalkWidth="2.00"/>
    <type id="highway.unsurfaced" priority="1" numLanes="1" speed="8.33" disallow="tram rail_urban rail rail_electric rail_fast ship" oneway="0"/>
    <type id="railway.highspeed" priority="21" numLanes="1" speed="69.44" allow="rail_fast" oneway="1"/>
    <type id="railway.light_rail" priority="19" numLanes="1" speed="27.78" allow="rail_urban" oneway="1"/>
    <type id="railway.preserved" priority="16" numLanes="1" speed="27.78" allow="rail" oneway="1"/>
    <type id="railway.rail" priority="20" numLanes="1" speed="44.44" allow="rail" oneway="1"/>
    <type id="railway.subway" priority="18" numLanes="1" speed="27.78" allow="rail_urban" oneway="1"/>
    <type id="railway.tram" priority="17" numLanes="1" speed="13.89" allow="tram" oneway="1"/>

    <edge id=":1001504521_0" function="internal">
        <lane id=":1001504521_0_0" index="0" disallow="pedestrian tram rail_urban rail rail_electric rail_fast ship" speed="27.78" length="41.22" shape="1318.86,1197.64 1345.86,1166.49"/>
    </edge>
    <edge id=":1001504521_1" function="internal">
        <lane id=":1001504521_1_0" index="0" allow="private emergency authority army vip passenger hov taxi bus coach delivery truck trailer motorcycle evehicle custom1 custom2" speed="25.00" length="39.69" shape="1321.27,1199.75 1347.58,1170.03"/>
    </edge>
    <edge id=":1012196238_0" function="internal">
        <lane id=":1012196238_0_0" index="0" disallow="pedestrian tram rail_urban rail rail_electric rail_fast ship" speed="13.89" length="0.30" shape="1319.17,1744.03 1319.28,1744.31"/>
    </edge>
    <edge id=":1012196280_0" function="internal">
        <lane id=":1012196280_0_0" index="0" disallow="pedestrian tram rail_urban rail rail_electric rail_fast ship" speed="13.89" length="0.30" shape="1324.92,1759.38 1325.02,1759.67"/>
    </edge>
    <edge id=":1012196576_0" function="internal">
        <lane id=":1012196576_0_0" index="0" disallow="pedestrian tram rail_urban rail rail_electric rail_fast ship" speed="13.89" length="0.30" shape="1198.19,1775.54 1198.09,1775.26"/>
    </edge>
    <edge id=":1065961820_0" function="internal">
        <lane id=":1065961820_0_0" index="0" disallow="pedestrian tram rail_urban rail rail_electric rail_fast ship" speed="13.89" length="0.31" shape="1055.04,1263.64 1055.03,1263.32"/>
    </edge>
    <edge id=":1065961820_1" function="internal">
        <lane id=":1065961820_1_0" index="0" disallow="pedestrian tram rail_urban rail rail_electric rail_fast ship" speed="13.89" length="0.27" shape="1058.23,1263.26 1058.23,1263.54"/>
    </edge>
    <edge id=":1132622212_0" function="internal">
        <lane id=":1132622212_0_0" index="0" allow="delivery bicycle" speed="6.65" length="7.81" shape="1069.46,1616.60 1068.71,1615.83 1067.22,1615.42 1065.00,1615.38 1062.05,1615.71"/>
    </edge>
    <edge id=":1132622212_1" function="internal">
        <lane id=":1132622212_1_0" index="0" disallow="pedestrian tram rail_urban rail rail_electric rail_fast ship" speed="27.78" length="6.60" shape="1069.46,1616.60 1066.81,1610.63"/>
        <lane id=":1132622212_1_1" index="1" disallow="pedestrian tram rail_urban rail rail_electric rail_fast ship" speed="27.78" length="6.60" shape="1072.43,1615.41 1069.72,1609.31"/>
    </edge>
    <edge id=":1163001906_0" function="internal">
        <lane id=":1163001906_0_0" index="0" allow="private emergency authority army vip passenger hov taxi bus coach delivery truck trailer motorcycle evehicle custom1 custom2" speed="27.77" length="8.02" shape="845.13,1800.29 839.60,1806.10"/>
    </edge>
    <edge id=":1163001906_1" function="internal">
        <lane id=":1163001906_1_0" index="0" allow="private emergency authority army vip passenger hov taxi bus coach delivery truck trailer motorcycle evehicle custom1 custom2" speed="33.33" length="8.00" shape="842.74,1798.06 837.27,1803.91"/>
        <lane id=":1163001906_1_1" index="1" allow="private emergency authority army vip passenger hov taxi bus coach delivery truck trailer motorcycle evehicle custom1 custom2" speed="33.33" length="8.00" shape="840.40,1795.88 834.94,1801.72"/>
        <lane id=":1163001906_1_2" index="2" allow="private emergency authority army vip passenger hov taxi bus coach delivery truck trailer motorcycle evehicle custom1 custom2" speed="33.33" length="8.00" shape="838.06,1793.69 832.61,1799.53"/>
    </edge>
    <edge id=":1163001926_0" function="internal">
        <lane id=":1163001926_0_0" index="0" allow="delivery bicycle" speed="5.99" length="7.65" shape="919.72,1580.49 919.22,1577.85 918.41,1576.02 917.29,1575.02 915.85,1574.83"/>
    </edge>
    <edge id=":1163001926_1" function="internal">
        <lane id=":1163001926_1_0" index="0" allow="delivery bicycle" speed="6.95" length="12.66" shape="919.72,1580.49 919.65,1576.38 920.46,1573.32 922.17,1571.33 924.76,1570.39"/>
    </edge>
    <edge id=":1163001926_2" function="internal">
        <lane id=":1163001926_2_0" index="0" allow="delivery bicycle" speed="6.09" length="7.66" shape="925.18,1573.56 923.93,1574.12 923.13,1575.41 922.78,1577.41 922.90,1580.14"/>
    </edge>
    <edge id=":1163001926_3" function="internal">
        <lane id=":1163001926_3_0" index="0" disallow="pedestrian tram rail_urban rail rail_electric rail_fast ship" speed="8.33" length="9.42" shape="925.18,1573.56 915.85,1574.83"/>
    </edge>
    <edge id=":1163001926_4" function="internal">
        <lane id=":1163001926_4_0" index="0" disallow="pedestrian tram rail_urban rail rail_electric rail_fast ship" speed="8.33" length="9.43" shape="915.41,1571.66 924.76,1570.39"/>
    </edge>
    <edge id=":1163001926_5" function="internal">
        <lane id=":1163001926_5_0" index="0" allow="delivery bicycle" speed="6.95" length="4.42" shape="915.41,1571.66 918.30,1571.86 919.57,1572.71"/>
    </edge>
    <edge id=":1163001926_6" function="internal">
        <lane id=":1163001926_6_0" index="0" allow="delivery bicycle" speed="6.95" length="8.42" shape="919.57,1572.71 920.51,1573.34 922.04,1576.10 922.90,1580.14"/>
    </edge>
    <edge id=":1163001937_0" function="internal">
        <lane id=":1163001937_0_0" index="0" allow="private emergency authority army vip passenger hov taxi bus coach delivery truck trailer motorcycle evehicle custom1 custom2" speed="25.00" length="8.02" shape="756.62,1852.35 761.94,1846.34"/>
        <lane id=":1163001937_0_1" index="1" allow="private emergency authority army vip passenger hov taxi bus coach delivery truck trailer motorcycle evehicle custom1 custom2" speed="25.00" length="8.02" shape="759.02,1854.46 764.33,1848.46"/>
    </edge>
    <edge id=":1163001937_2" function="internal">
        <lane id=":1163001937_2_0" index="0" allow="private emergency authority army vip passenger hov taxi bus coach delivery truck trailer motorcycle evehicle custom1 custom2" speed="30.56" length="7.98" shape="761.42,1856.58 766.77,1850.63"/>
        <lane id=":1163001937_2_1" index="1" allow="private emergency authority army vip passenger hov taxi bus coach delivery truck trailer motorcycle evehicle custom1 custom2" speed="30.56" length="7.98" shape="763.82,1858.69 769.16,1852.75"/>
        <lane id=":1163001937_2_2" index="2" allow="private emergency authority army vip passenger hov taxi bus coach delivery truck trailer motorcycle evehicle custom1 custom2" speed="30.56" length="7.98" shape="766.23,1860.81 771.55,1854.88"/>
    </edge>
    <edge id=":1165301824_0" function="internal">
        <lane id=":1165301824_0_0" index="0" disallow="pedestrian tram rail_urban rail rail_electric rail_fast ship" speed="27.78" length="25.31" shape="1588.09,883.86 1592.38,879.11 1595.80,875.10 1599.32,870.54 1603.92,864.14"/>
    </edge>
    <edge id=":1165301824_1" function="internal">
        <lane id=":1165301824_1_0" index="0" allow="private emergency authority army vip passenger hov taxi bus coach delivery truck trailer motorcycle evehicle custom1 custom2" speed="25.00" length="25.44" shape="1591.07,886.19 1606.53,865.99"/>
    </edge>
    <edge id=":1165301826_0" function="internal">
        <lane id=":1165301826_0_0" index="0" disallow="pedestrian tram rail_urban rail rail_electric rail_fast ship" speed="27.78" length="2.81" shape="1498.92,1046.91 1498.37,1047.54 1498.00,1047.98 1497.66,1048.43 1497.17,1049.11"/>
    </edge>
    <edge id=":1165301826_1" function="internal">
        <lane id=":1165301826_1_0" index="0" allow="private emergency authority army vip passenger hov taxi bus coach delivery truck trailer motorcycle evehicle custom1 custom2" speed="25.00" length="2.82" shape="1498.92,1046.91 1497.08,1049.05"/>
    </edge>
    <edge id=":1165301837_0" function="internal">
        <lane id=":1165301837_0_0" index="0" allow="private emergency authority army vip passenger hov taxi bus coach delivery truck trailer motorcycle evehicle custom1 custom2" speed="16.66" length="2.98" shape="1289.97,1284.80 1288.06,1287.03"/>
        <lane id=":1165301837_0_1" index="1" allow="private emergency authority army vip passenger hov taxi bus coach delivery truck trailer motorcycle evehicle custom1 custom2" speed="16.66" length="2.98" shape="1287.56,1282.69 1285.59,1284.99"/>
    </edge>
    <edge id=":1165301841_0" function="internal">
        <lane id=":1165301841_0_0" index="0" allow="pedestrian delivery bicycle" speed="3.65" length="4.67" shape="1686.88,1110.05 1688.04,1109.20 1688.93,1109.10 1689.54,1109.75 1689.88,1111.15"/>
    </edge>
    <edge id=":1165301862_0" function="internal">
        <lane id=":1165301862_0_0" index="0" allow="bicycle" speed="5.35" length="6.34" shape="1647.84,1121.98 1645.61,1122.30 1644.06,1122.91 1643.19,1123.80 1643.00,1124.98"/>
    </edge>
    <edge id=":1165301862_1" function="internal">
        <lane id=":1165301862_1_0" index="0" disallow="pedestrian tram rail_urban rail rail_electric rail_fast ship" speed="13.89" length="5.02" shape="1642.45,1119.99 1643.00,1124.98"/>
    </edge>
    <edge id=":1165301867_0" function="internal">
        <lane id=":1165301867_0_0" index="0" disallow="pedestrian tram rail_urban rail rail_electric rail_fast ship" speed="9.05" length="7.36" shape="1587.08,1254.58 1585.42,1256.04 1584.21,1257.11 1583.46,1258.38 1583.19,1260.42"/>
    </edge>
    <edge id=":1165301867_1" function="internal">
        <lane id=":1165301867_1_0" index="0" disallow="pedestrian tram rail_urban rail rail_electric rail_fast ship" speed="27.78" length="10.38" shape="1583.24,1250.04 1583.19,1260.42"/>
    </edge>
    <edge id=":1165301878_0" function="internal">
        <lane id=":1165301878_0_0" index="0" allow="private emergency authority army vip passenger hov taxi bus coach delivery truck trailer motorcycle evehicle custom1 custom2" speed="30.83" length="9.03" shape="1552.97,937.86 1554.75,935.86 1556.00,934.52 1557.32,933.24 1559.27,931.41"/>
    </edge>
    <edge id=":1165301878_1" function="internal">
        <lane id=":1165301878_1_0" index="0" allow="private emergency authority army vip passenger hov taxi bus coach delivery truck trailer motorcycle evehicle custom1 custom2" speed="39.44" length="8.43" shape="1555.37,939.97 1561.16,933.42"/>
        <lane id=":1165301878_1_1" index="1" allow="private emergency authority army vip passenger hov taxi bus coach delivery truck trailer motorcycle evehicle custom1 custom2" speed="39.44" length="8.43" shape="1557.77,942.09 1563.36,935.77"/>
        <lane id=":1165301878_1_2" index="2" allow="private emergency authority army vip passenger hov taxi bus coach delivery truck trailer motorcycle evehicle custom1 custom2" speed="39.44" length="8.43" shape="1560.18,944.20 1565.55,938.11"/>
    </edge>
    <edge id=":1165301879_0" function="internal">
        <lane id=":1165301879_0_0" index="0" allow="private emergency authority army vip passenger hov taxi bus coach delivery truck trailer motorcycle evehicle custom1 custom2" speed="25.00" length="96.42" shape="1425.77,1138.53 1412.21,1149.78 1390.90,1171.37 1370.09,1193.65 1358.02,1206.98"/>
    </edge>
    <edge id=":1165301879_1" function="internal">
        <lane id=":1165301879_1_0" index="0" allow="private emergency authority army vip passenger hov taxi bus coach delivery truck trailer motorcycle evehicle custom1 custom2" speed="22.22" length="96.55" shape="1422.94,1135.51 1358.02,1206.98"/>
        <lane id=":1165301879_1_1" index="1" allow="private emergency authority army vip passenger hov taxi bus coach delivery truck trailer motorcycle evehicle custom1 custom2" speed="22.22" length="96.55" shape="1420.54,1133.40 1355.61,1204.87"/>
    </edge>
    <edge id=":1165301882_0" function="internal">
        <lane id=":1165301882_0_0" index="0" allow="private emergency authority army vip passenger hov taxi bus coach delivery truck trailer motorcycle evehicle custom1 custom2" speed="27.77" length="8.07" shape="1636.35,886.82 1630.95,892.82"/>
    </edge>
    <edge id=":1165301882_1" function="internal">
        <lane id=":1165301882_1_0" index="0" allow="private emergency authority army vip passenger hov taxi bus coach delivery truck trailer motorcycle evehicle custom1 custom2" speed="33.33" length="7.94" shape="1633.94,884.70 1628.58,890.65"/>
        <lane id=":1165301882_1_1" index="1" allow="private emergency authority army vip passenger hov taxi bus coach delivery truck trailer motorcycle evehicle custom1 custom2" speed="33.33" length="7.94" shape="1631.54,882.59 1626.22,888.48"/>
        <lane id=":1165301882_1_2" index="2" allow="private emergency authority army vip passenger hov taxi bus coach delivery truck trailer motorcycle evehicle custom1 custom2" speed="33.33" length="7.94" shape="1629.14,880.47 1623.86,886.32"/>
    </edge>
    <edge id=":1165301884_0" function="internal">
        <lane id=":1165301884_0_0" index="0" allow="private emergency authority army vip passenger hov taxi bus coach delivery truck trailer motorcycle evehicle custom1 custom2" speed="27.77" length="7.90" shape="1357.38,1159.81 1362.69,1153.95"/>
    </edge>
    <edge id=":1165301884_1" function="internal">
        <lane id=":1165301884_1_0" index="0" allow="private emergency authority army vip passenger hov taxi bus coach delivery truck trailer motorcycle evehicle custom1 custom2" speed="33.33" length="8.00" shape="1359.90,1162.03 1365.12,1156.04"/>
        <lane id=":1165301884_1_1" index="1" allow="private emergency authority army vip passenger hov taxi bus coach delivery truck trailer motorcycle evehicle custom1 custom2" speed="33.33" length="8.00" shape="1362.30,1164.15 1367.55,1158.12"/>
        <lane id=":1165301884_1_2" index="2" allow="private emergency authority army vip passenger hov taxi bus coach delivery truck trailer motorcycle evehicle custom1 custom2" speed="33.33" length="8.00" shape="1364.69,1166.27 1369.98,1160.20"/>
    </edge>
    <edge id=":1165301917_0" function="internal">
        <lane id=":1165301917_0_0" index="0" disallow="pedestrian tram rail_urban rail rail_electric rail_fast ship" speed="27.78" length="0.31" shape="1208.29,1324.13 1208.49,1323.91"/>
        <lane id=":1165301917_0_1" index="1" disallow="pedestrian tram rail_urban rail rail_electric rail_fast ship" speed="27.78" length="0.31" shape="1210.69,1326.25 1210.90,1326.01"/>
    </edge>
    <edge id=":1165301931_0" function="internal">
        <lane id=":1165301931_0_0" index="0" allow="pedestrian bicycle" speed="4.17" length="3.52" width="2.00" shape="1655.60,1123.00 1654.64,1122.83 1654.05,1122.33 1653.45,1121.82 1652.49,1121.64"/>
    </edge>
    <edge id=":1165301931_1" function="internal">
        <lane id=":1165301931_1_0" index="0" allow="pedestrian delivery bicycle" speed="3.65" length="4.67" shape="1655.60,1123.00 1654.34,1122.30 1653.88,1121.54 1654.21,1120.71 1655.34,1119.81"/>
    </edge>
    <edge id=":1165301936_0" function="internal">
        <lane id=":1165301936_0_0" index="0" disallow="pedestrian tram rail_urban rail rail_electric rail_fast ship" speed="22.22" length="8.88" shape="1588.27,1251.25 1588.35,1253.87 1588.63,1255.65 1589.11,1257.41 1589.77,1259.96"/>
    </edge>
    <edge id=":1165301936_1" function="internal">
        <lane id=":1165301936_1_0" index="0" disallow="pedestrian tram rail_urban rail rail_electric rail_fast ship" speed="6.47" length="3.50" shape="1588.27,1251.25 1588.27,1252.29 1588.18,1253.03 1587.88,1253.67 1587.22,1254.43"/>
    </edge>
    <edge id=":1217727855_0" function="internal">
        <lane id=":1217727855_0_0" index="0" disallow="pedestrian tram rail_urban rail rail_electric rail_fast ship" speed="19.45" length="8.47" shape="1008.26,1504.55 1007.28,1502.25 1006.43,1500.75 1005.45,1499.33 1004.05,1497.24"/>
    </edge>
    <edge id=":1217727855_1" function="internal">
        <lane id=":1217727855_1_0" index="0" disallow="pedestrian tram rail_urban rail rail_electric rail_fast ship" speed="14.47" length="4.95" shape="1006.74,1495.52 1007.55,1496.74 1008.19,1497.52 1008.96,1498.18 1010.15,1499.02"/>
    </edge>
    <edge id=":1217727896_0" function="internal">
        <lane id=":1217727896_0_0" index="0" disallow="pedestrian tram rail_urban rail rail_electric rail_fast ship" speed="22.23" length="0.35" shape="536.00,930.26 535.65,930.20"/>
    </edge>
    <edge id=":1217727896_1" function="internal">
        <lane id=":1217727896_1_0" index="0" disallow="pedestrian tram rail_urban rail rail_electric rail_fast ship" speed="22.23" length="0.60" shape="536.12,927.03 536.71,927.14"/>
    </edge>
    <edge id=":1217727951_0" function="internal">
        <lane id=":1217727951_0_0" index="0" disallow="pedestrian tram rail_urban rail rail_electric rail_fast ship" speed="9.95" length="12.22" shape="1020.20,1503.38 1023.77,1504.28 1026.91,1504.47 1029.64,1503.94 1031.93,1502.70"/>
    </edge>
    <edge id=":1217727951_1" function="internal">
        <lane id=":1217727951_1_0" index="0" disallow="pedestrian tram rail_urban rail rail_electric rail_fast ship" speed="27.78" length="11.12" shape="1023.38,1509.97 1031.93,1502.70"/>
        <lane id=":1217727951_1_1" index="1" disallow="pedestrian tram rail_urban rail rail_electric rail_fast ship" speed="27.78" length="11.12" shape="1025.47,1512.39 1033.88,1505.25"/>
    </edge>
    <edge id=":1253997594_0" function="internal">
        <lane id=":1253997594_0_0" index="0" disallow="pedestrian tram rail_urban rail rail_electric rail_fast ship" speed="3.65" length="4.67" shape="522.06,928.19 520.99,927.23 520.71,926.38 521.22,925.64 522.52,925.03"/>
    </edge>
    <edge id=":1253997655_0" function="internal">
        <lane id=":1253997655_0_0" index="0" disallow="pedestrian tram rail_urban rail rail_electric rail_fast ship" speed="27.78" length="0.30" shape="565.64,1300.55 565.59,1300.84"/>
    </edge>
    <edge id=":1253997655_1" function="internal">
        <lane id=":1253997655_1_0" index="0" disallow="pedestrian tram rail_urban rail rail_electric rail_fast ship" speed="27.78" length="0.19" shape="562.45,1300.23 562.48,1300.05"/>
    </edge>
    <edge id=":1253997680_0" function="internal">
        <lane id=":1253997680_0_0" index="0" disallow="pedestrian tram rail_urban rail rail_electric rail_fast ship" speed="27.78" length="10.28" shape="602.53,1545.52 602.41,1555.79"/>
    </edge>
    <edge id=":1253997680_1" function="internal">
        <lane id=":1253997680_1_0" index="0" disallow="pedestrian tram rail_urban rail rail_electric rail_fast ship" speed="7.34" length="3.74" shape="602.53,1545.52 601.93,1547.77 600.89,1548.71"/>
    </edge>
    <edge id=":1253997680_4" function="internal">
        <lane id=":1253997680_4_0" index="0" disallow="pedestrian tram rail_urban rail rail_electric rail_fast ship" speed="7.34" length="8.12" shape="600.89,1548.71 600.18,1549.36 597.26,1550.29 593.17,1550.56"/>
    </edge>
    <edge id=":1253997680_2" function="internal">
        <lane id=":1253997680_2_0" index="0" disallow="pedestrian tram rail_urban rail rail_electric rail_fast ship" speed="6.51" length="9.06" shape="599.21,1555.75 598.86,1553.51 597.74,1551.90 595.84,1550.91 593.17,1550.56"/>
    </edge>
    <edge id=":1253997680_3" function="internal">
        <lane id=":1253997680_3_0" index="0" disallow="pedestrian tram rail_urban rail rail_electric rail_fast ship" speed="27.78" length="10.25" shape="599.21,1555.75 599.33,1545.50"/>
    </edge>
    <edge id=":1255538388_0" function="internal">
        <lane id=":1255538388_0_0" index="0" disallow="pedestrian tram rail_urban rail rail_electric rail_fast ship" speed="27.78" length="0.35" shape="1574.07,1246.88 1574.08,1246.46"/>
        <lane id=":1255538388_0_1" index="1" disallow="pedestrian tram rail_urban rail rail_electric rail_fast ship" speed="27.78" length="0.35" shape="1577.27,1246.92 1577.27,1246.63"/>
    </edge>
    <edge id=":1255538439_0" function="internal">
        <lane id=":1255538439_0_0" index="0" disallow="pedestrian tram rail_urban rail rail_electric rail_fast ship" speed="11.11" length="0.31" shape="1545.49,1671.12 1545.43,1671.43"/>
    </edge>
    <edge id=":1271320646_0" function="internal">
        <lane id=":1271320646_0_0" index="0" disallow="pedestrian tram rail_urban rail rail_electric rail_fast ship" speed="8.75" length="10.09" shape="1537.01,1640.38 1540.28,1638.95 1542.69,1637.51 1544.24,1636.07 1544.92,1634.62"/>
    </edge>
    <edge id=":1271320646_1" function="internal">
        <lane id=":1271320646_1_0" index="0" disallow="pedestrian tram rail_urban rail rail_electric rail_fast ship" speed="11.11" length="9.21" shape="1543.22,1643.68 1544.92,1634.62"/>
    </edge>
    <edge id=":1431457383_0" function="internal">
        <lane id=":1431457383_0_0" index="0" disallow="pedestrian tram rail_urban rail rail_electric rail_fast ship" speed="3.65" length="4.67" shape="1401.34,986.44 1400.37,985.38 1400.18,984.50 1400.76,983.82 1402.12,983.34"/>
    </edge>
    <edge id=":1431457508_0" function="internal">
        <lane id=":1431457508_0_0" index="0" disallow="pedestrian tram rail_urban rail rail_electric rail_fast ship" speed="27.78" length="15.23" shape="1553.64,1071.83 1561.74,1084.73"/>
    </edge>
    <edge id=":1431457508_1" function="internal">
        <lane id=":1431457508_1_0" index="0" disallow="pedestrian tram rail_urban rail rail_electric rail_fast ship" speed="9.67" length="15.59" shape="1548.91,1077.91 1552.90,1077.87 1556.37,1078.99 1559.32,1081.28 1561.74,1084.73"/>
    </edge>
    <edge id=":1431457518_0" function="internal">
        <lane id=":1431457518_0_0" index="0" disallow="pedestrian tram rail_urban rail rail_electric rail_fast ship" speed="27.78" length="14.82" shape="1563.85,1088.66 1565.92,1092.54 1567.28,1095.23 1568.50,1097.98 1570.19,1102.04"/>
    </edge>
    <edge id=":1431457518_1" function="internal">
        <lane id=":1431457518_1_0" index="0" disallow="pedestrian tram rail_urban rail rail_electric rail_fast ship" speed="11.59" length="14.52" shape="1563.85,1088.66 1564.74,1091.33 1564.83,1094.56 1564.14,1098.36 1562.65,1102.73"/>
    </edge>
    <edge id=":1431457541_0" function="internal">
        <lane id=":1431457541_0_0" index="0" disallow="pedestrian tram rail_urban rail rail_electric rail_fast ship" speed="16.67" length="0.28" shape="758.11,1112.93 757.96,1112.69"/>
    </edge>
    <edge id=":1431457541_1" function="internal">
        <lane id=":1431457541_1_0" index="0" disallow="pedestrian tram rail_urban rail rail_electric rail_fast ship" speed="16.67" length="0.31" shape="760.64,1110.94 760.81,1111.20"/>
    </edge>
    <edge id=":1431457817_0" function="internal">
        <lane id=":1431457817_0_0" index="0" allow="bicycle" speed="4.83" length="5.22" shape="1044.45,1465.94 1042.83,1465.94 1041.67,1466.35 1040.95,1467.18 1040.69,1468.43"/>
    </edge>
    <edge id=":1431457817_1" function="internal">
        <lane id=":1431457817_1_0" index="0" allow="bicycle" speed="5.94" length="8.14" shape="1044.45,1465.94 1041.48,1465.41 1039.43,1464.60 1038.32,1463.52 1038.13,1462.16"/>
    </edge>
    <edge id=":1431457817_2" function="internal">
        <lane id=":1431457817_2_0" index="0" disallow="pedestrian tram rail_urban rail rail_electric rail_fast ship" speed="13.89" length="5.72" shape="1041.28,1462.75 1040.98,1464.42 1040.82,1465.57 1040.74,1466.73 1040.69,1468.43"/>
    </edge>
    <edge id=":1431457817_3" function="internal">
        <lane id=":1431457817_3_0" index="0" disallow="pedestrian tram rail_urban rail rail_electric rail_fast ship" speed="13.89" length="6.22" shape="1037.49,1468.34 1037.54,1466.49 1037.63,1465.23 1037.80,1463.98 1038.13,1462.16"/>
    </edge>
    <edge id=":1431457827_0" function="internal">