<?xml version="1.0" encoding="UTF-8"?>

<!-- generated on 03/18/20 19:13:20 by Eclipse SUMO duarouter Version 1.5.0
<configuration xmlns:xsi="http://www.w3.org/2001/XMLSchema-instance" xsi:noNamespaceSchemaLocation="http://sumo.dlr.de/xsd/duarouterConfiguration.xsd">

    <input>
        <net-file value="anchieta.net.xml"/>
        <route-files value="trips.trips.xml"/>
    </input>

    <output>
        <output-file value="anchieta_pedestrians.rou.xml"/>
        <alternatives-output value="anchieta_pedestrians.rou.alt.xml"/>
    </output>

    <time>
        <begin value="0"/>
        <end value="3600"/>
    </time>

    <report>
        <no-warnings value="true"/>
        <ignore-errors value="true"/>
        <no-step-log value="true"/>
    </report>

</configuration>
-->

<routes xmlns:xsi="http://www.w3.org/2001/XMLSchema-instance" xsi:noNamespaceSchemaLocation="http://sumo.dlr.de/xsd/routes_file.xsd">
    <person id="4" depart="4.00">
        <walk edges="142470433#4 142470433#3 142470433#2 142470433#1 550301038 218891289 142470465 142470461 216268744 154607613#1 154607613#0 154607611 217365460#2"/>
    </person>
    <person id="15" depart="15.00">
        <walk edges="775363912 62073503 449289363 216657574 62073558#1"/>
    </person>
    <person id="17" depart="17.00">
        <walk edges="109573927#0 83819551 -360732760 109573927#2 109573927#3 109573927#4 -109573927#4 -109573927#3 -109573927#2 -109573927#1 142470420 358043014#1 452075120#0 452075120#1 358043015#0 358043015#1 358043015#3 362090922#0 -362090922#0 217365458#1 217365458#2 142470465 218891289 550301038 142470433#1 142470433#2 142470433#3 142470433#4 142470433#5 -142470433#5 36356470#0 -36745179 36745180"/>
    </person>
    <person id="27" depart="27.00">
        <walk edges="109573936 -109573936 -109573928#0 -109573928#1.8 218891289 142470465 217365458#2 217365458#1 -362090922#0 362090922#0 358043015#3 358043015#1 358043015#0 452075120#1 452075120#0 358043014#1 142470420 -109573927#1 -109573927#2 -109573927#3 -109573927#4 109573927#4 109573927#3 109573927#2 -360732760 83819551 109573927#0 358043017#0 -358043017#1 -109572701#1 -109572701#2 -109572701#4 109572701#4 109572701#2 109572701#0 -358043014#0 -358043014#1 -452075120#0 -452075120#1 -358043015#0 -358043015#1 -86552745#0"/>
    </person>
    <person id="32" depart="32.00">
        <walk edges="142470433#2 142470433#1 550301038 218891289 142470465 142470461 216268744 154607613#1 154607613#0 154607611 775381932 216243708#1 215803157 215803174#0"/>
    </person>
    <person id="36" depart="36.00">
        <walk edges="109573927#0 83819551 -360732760 109573927#2 109573927#3 109573927#4 -109573927#4 -109573927#3 -109573927#2 -109573927#1 142470420 358043014#1 452075120#0 452075120#1 358043015#0 358043015#1 358043015#3 362090922#0 -362090922#0 217365458#1 217365458#2 142470465 218891289 550301038 142470433#1 142470433#2 142470433#3 142470433#4 142470433#5 -142470433#5 36356470#0"/>
    </person>
    <person id="37" depart="37.00">
        <walk edges="97855879 217365460#2 154607611 154607613#0 154607613#1 216268744 142470461 217365458#2 217365458#1 -362090922#0 362090922#0 358043015#3 358043015#1 358043015#0 452075120#1 452075120#0 358043014#1 142470420 -109573927#1 -109573927#2 -109573927#3 -109573927#4 109573927#4 109573927#3 109573927#2 -360732760 83819551 109573927#0 358043017#0 -358043017#1 -109572701#1 -109572701#2 -109572701#4 109572701#4 109572701#2 109572701#0 -358043014#0"/>
    </person>
    <person id="38" depart="38.00">
        <walk edges="83819551 -360732760 109573927#2 109573927#3 109573927#4 -109573927#4 -109573927#3 -109573927#2 -109573927#1 142470420 358043014#1 452075120#0 452075120#1 358043015#0 358043015#1 358043015#3 362090922#0 -362090922#0 217365458#1 217365458#2 142470465 218891289 -109573928#1.8 -109573928#0 -109573936 109573936"/>
    </person>
    <person id="46" depart="46.00">
        <walk edges="36356470#0 -142470433#5 142470433#5 142470433#4 142470433#3 142470433#2 142470433#1 550301038 218891289 142470465 217365458#2 217365458#1 -362090922#0 362090922#0 358043015#3 358043015#1 358043015#0 452075120#1 452075120#0 358043014#1 142470420 -109573927#1 -109573927#2 -109573927#3 -109573927#4 109573927#4 109573927#3 109573927#2 -360732760 83819551 109573927#0 358043017#0 -358043017#1 -109572701#1 -109572701#2 -109572701#4 109572701#4 109572701#2 109572701#0 -358043014#0 -358043014#1 -452075120#0 -452075120#1 -358043015#0 -358043015#1 -217365458#0 -217365458#1 -217365458#2 362088243#1"/>
    </person>
    <person id="55" depart="55.00">
        <walk edges="352512895 352512906 -358043015#0 -452075120#1 -452075120#0 -358043014#1 -358043014#0 109572701#0 109572701#2 109572701#4 -109572701#4 -109572701#2 -109572701#1 -358043017#1 358043017#0 109573927#0 83819551 -360732760 109573927#2 109573927#3 109573927#4 -109573927#4 -109573927#3 -109573927#2 -109573927#1 142470420 358043014#1 452075120#0 452075120#1 358043015#0 358043015#1 358043015#3 362090922#0 -362090922#0 217365458#1 217365458#2 142470461 216268744 154607613#1 154607613#0 154607611 775381932 28490061#1 28490061#2 28490064#0 28490064#2 28490064#3 28490064#4 28490064#5 28490064#6 24610649"/>
    </person>
    <person id="61" depart="61.00">
        <walk edges="352551417 86552745#0 -358043015#1 -358043015#0 -452075120#1 -452075120#0 -358043014#1 -358043014#0 109572701#0 109572701#2 109572701#4 -109572701#4 -109572701#2 -109572701#1 -358043017#1 358043017#0"/>
    </person>
    <person id="66" depart="66.00">
        <walk edges="352512906 -358043015#0 -452075120#1 -452075120#0 -358043014#1 -358043014#0 109572701#0 109572701#2 109572701#4 -109572701#4 -109572701#2 -109572701#1 -358043017#1 358043017#0 109573927#0 83819551 -360732760 109573927#2 109573927#3 109573927#4 -109573927#4 -109573927#3 -109573927#2 -109573927#1 142470420 358043014#1 452075120#0 452075120#1 358043015#0 358043015#1 358043015#3 362090922#0 -362090922#0 217365458#1 217365458#2 142470461"/>
    </person>
    <person id="69" depart="69.00">
        <walk edges="142470420 358043014#1 452075120#0 452075120#1 358043015#0 358043015#1 358043015#3 362090922#0 -362090922#0 217365458#1 217365458#2 142470461 216268744 154607613#1 154607613#0"/>
    </person>
    <person id="88" depart="88.00">
        <walk edges="159229344#0.2 159229344#0 216243708#1 28490061#1 28490061#2 28490064#0 28490064#2 28490064#3 28490064#4 28490064#5 28490064#6 24610649 217365467#0 28370559#5"/>
    </person>
    <person id="89" depart="89.00">
        <walk edges="36857885 -36356470#8"/>
    </person>
    <person id="90" depart="90.00">
        <walk edges="-217365458#2 -217365458#1 -217365458#0 -358043015#1 -358043015#0 -452075120#1 -452075120#0 -358043014#1 -358043014#0 109572701#0 109572701#2 109572701#4 -109572701#4 -109572701#2 -109572701#1 -358043017#1 358043017#0 109573927#0 83819551 -360732760 109573927#2 109573927#3 109573927#4 -109573927#4"/>
    </person>
    <person id="91" depart="91.00">
        <walk edges="36356470#10 36356470#9 36745180 -36745179 36356470#0 -142470433#5 142470433#5 142470433#4 142470433#3 142470433#2 142470433#1 550301038 218891289 142470465 217365458#2 217365458#1 -362090922#0 362090922#0 358043015#3 358043015#1 358043015#0 452075120#1 452075120#0 358043014#1 361766319"/>
    </person>
    <person id="95" depart="95.00">
        <walk edges="36745181 -36745181 -36356470#9 -36356470#8 36857885 -36857885 -36356470#7 -36732105#0 36732106 -142470433#3 91731866#0 91731866#1 91731866#2 91731866#4 -91731866#4 91731878#0"/>
    </person>
    <person id="101" depart="101.00">
        <walk edges="352512895 352512906 -358043015#1 -217365458#0 -217365458#1"/>
    </person>
    <person id="110" depart="110.00">
        <walk edges="-109573927#3 -109573927#2 -109573927#1 142470420 358043014#1 452075120#0 452075120#1 358043015#0 358043015#1 358043015#3 362090922#0 -362090922#0 217365458#1 217365458#2 142470461 216268744 154607613#1"/>
    </person>
    <person id="118" depart="118.00">
        <walk edges="62073558#0 745156630 745155172 142470423#5 142470423#4 142470423#3 142470423#2 142470423#1"/>
    </person>
    <person id="120" depart="120.00">
        <walk edges="28370559#6 28370559#5 217365467#0 24610649 28490064#6 28490064#5 28490064#4 28490064#3 28490064#2 28490064#0 28490061#2 28490061#1 775381932 154607611 154607613#0 154607613#1 216268744 142470461 217365458#2 217365458#1 -362090922#0 362090922#0 358043015#3 358043015#1 358043015#0 452075120#1 452075120#0 358043014#1 142470420 -109573927#1 -109573927#2 -109573927#3 -109573927#4 109573927#4 109573927#3 109573927#2 -360732760 83819551 109573927#0 358043017#0 -358043017#1 -109572701#1 -109572701#2 -109572701#4 109572701#4 109572701#2 109572701#0 -358043014#0 -358043014#1 -452075120#0 -452075120#1 -358043015#0 -358043015#1 86552745#0 86552745#1"/>
    </person>
    <person id="164" depart="164.00">
        <walk edges="159229344#0.2 159229344#0 216243708#1 775381932 154607611 154607613#0 154607613#1 216268744 142470461 217365458#2 217365458#1 -362090922#0 362090922#0 358043015#3 358043015#1 358043015#0 452075120#1 452075120#0 358043014#1 142470420 -109573927#1 -109573927#2 -109573927#3 -109573927#4 109573927#4 109573927#3 109573927#2 -360732760 83819551 109573927#0 358043017#0 -358043017#1 -109572701#1 -109572701#2 -109572701#4 109572701#4 109572701#2 109572701#0 -358043014#0 -358043014#1 -452075120#0"/>
    </person>
    <person id="179" depart="179.00">
        <walk edges="-109573927#3 -109573927#2 -109573927#1 142470420 -361766321"/>
    </person>
    <person id="182" depart="182.00">
        <walk edges="-217365458#0 -358043015#1 -358043015#0"/>
    </person>
    <person id="189" depart="189.00">
        <walk edges="28490064#3 28490064#2 28490064#0 28490061#2 28490061#1 775381932 154607611"/>
    </person>
    <person id="194" depart="194.00">
        <walk edges="-358043014#1 -358043014#0 109572701#0 109572701#2 109572701#4 -109572701#4 -109572701#2 -109572701#1 -358043017#1 358043017#0 109573927#0 83819551 -360732760 109573927#2 109573927#3 109573927#4 -109573927#4 -109573927#3 -109573927#2 -109573927#1 142470420 358043014#1 452075120#0 452075120#1 358043015#0 358043015#1 358043015#3 362090922#0 -362090922#0 217365458#1 217365458#2 142470465 218891289 -109573928#1.8 -109573928#0 -109573936 109573936"/>
    </person>
    <person id="198" depart="198.00">
        <walk edges="-352585232 -217365458#1 -217365458#0 -358043015#1 -358043015#0 -452075120#1 -452075120#0 -358043014#1 -358043014#0 109572701#0 109572701#2 109572701#4 -109572701#4 -109572701#2 -109572701#1 -358043017#1 358043017#0 109573927#0 83819551 -360732760 109573927#2 109573927#3 109573927#4 -109573927#4 -109573927#3 -109573927#2 -109573927#1 142470420 358043014#1 452075120#0 452075120#1 358043015#0 358043015#1 358043015#3 362090922#0 -362090922#0 217365458#1 217365458#2 142470461 216268744 154607613#1 154607613#0 154607611 775381932 216243708#1 -159229344#0"/>
    </person>
    <person id="207" depart="207.00">
        <walk edges="109573927#3 109573927#4 -109573927#4 -109573927#3 -109573927#2 -109573927#1 142470420 358043014#1 452075120#0 452075120#1 358043015#0 358043015#1 358043015#3 362090922#0 -362090922#0 217365458#1 217365458#2 142470461 216268744 154607613#1 154607613#0 154607611 775381932"/>
    </person>
    <person id="211" depart="211.00">
        <walk edges="109572701#0 109572701#2 109572701#4 -109572701#4 -109572701#2 -109572701#1 -358043017#1 358043017#0 109573927#0 83819551 -360732760 109573927#2 109573927#3 109573927#4 -109573927#4 -109573927#3 -109573927#2 -109573927#1 142470420 358043014#1 452075120#0 452075120#1 358043015#0 358043015#1 358043015#3 362090922#0 -362090922#0 217365458#1 217365458#2 142470461 216268744 154607613#1 154607613#0 154607611 775381932 216243708#1 159229344#0"/>
    </person>
    <person id="215" depart="215.00">
        <walk edges="154607613#0 154607611 775381932 28490061#1 28490061#2 28490064#0 28490064#2"/>
    </person>
    <person id="217" depart="217.00">
        <walk edges="215803174#0 215803157 -159229344#0 -142470423#0"/>
    </person>
    <person id="218" depart="218.00">
        <walk edges="217159012#0 62073539 215077545 -25750813#0 36356470#10 36356470#9 36745180 -36745179 36356470#0 -142470433#5 142470433#5 142470433#4 142470433#3 142470433#2 142470433#1 550301038 218891289 142470465 142470461 216268744 154607613#1 154607613#0 154607611"/>
    </person>
    <person id="222" depart="222.00">
        <walk edges="142470433#3 142470433#4 142470433#5 -142470433#5 36356470#0"/>
    </person>
    <person id="227" depart="227.00">
        <walk edges="-36356470#8 36857885 -36857885 -36356470#7 -36732105#0 36732106 -142470433#3 91731866#0 91731866#1 91731866#2 91731866#4"/>
    </person>
    <person id="228" depart="228.00">
        <walk edges="550301038 218891289 142470465 217365458#2 217365458#1 -362090922#0 362090922#0 358043015#3 358043015#1 358043015#0 452075120#1 452075120#0 358043014#1 142470420 -109573927#1 -109573927#2 -109573927#3 -109573927#4 109573927#4 109573927#3 109573927#2 -360732760 83819551 109573927#0 358043017#0 -358043017#1 -109572701#1 -109572701#2 -109572701#4 109572701#4"/>
    </person>
    <person id="236" depart="236.00">
        <walk edges="100829413 449288818#1 100829416"/>
    </person>
    <person id="237" depart="237.00">
        <walk edges="28370577#3 28707345#0"/>
    </person>
    <person id="252" depart="252.00">
        <walk edges="62073503 449289363 216657574"/>
    </person>
    <person id="254" depart="254.00">
        <walk edges="-352585232 -217365458#1 -217365458#0 -358043015#1 -358043015#0 -452075120#1 -452075120#0 -358043014#1 -358043014#0 109572701#0 109572701#2 109572701#4 -109572701#4 -109572701#2 -109572701#1 -358043017#1 358043017#0 109573927#0 83819551 -360732760 109573927#2 109573927#3 109573927#4 -109573927#4 -109573927#3 -109573927#2 -109573927#1 142470420 358043014#1 452075120#0 452075120#1 358043015#0 358043015#1 358043015#3 362090922#0 -362090922#0 217365458#1 217365458#2 142470465 218891289 109573928#1"/>
    </person>
    <person id="264" depart="264.00">
        <walk edges="154607611 154607613#0 154607613#1 216268744 142470461 142470465 218891289 550301038 142470433#1 142470433#2 142470433#3"/>
    </person>
    <person id="266" depart="266.00">
        <walk edges="-109573928#0 -109573928#1.8 218891289 142470465 142470461 216268744 154607613#1 154607613#0 154607611 775381932 28490061#1 28490061#2"/>
    </person>
    <person id="272" depart="272.00">
        <walk edges="28707353 28707362#1 100829412 -100829407 100829407"/>
    </person>
    <person id="274" depart="274.00">
        <walk edges="-360732760 109573927#2 109573927#3 109573927#4 -109573927#4 -109573927#3 -109573927#2 -109573927#1 142470420 358043014#1 452075120#0 452075120#1 358043015#0 358043015#1 358043015#3 362090922#0 -362090922#0 217365458#1 217365458#2 142470465 218891289 550301038 142470433#1 142470433#2 142470433#3 142470433#4"/>
    </person>
    <person id="278" depart="278.00">
        <walk edges="-159229344#0 159229344#0 159229344#0.2"/>
    </person>
    <person id="285" depart="285.00">
        <walk edges="452075120#1 358043015#0 358043015#1 358043015#3 362090922#0 -362090922#0 217365458#1 217365458#2"/>
    </person>
    <person id="286" depart="286.00">
        <walk edges="359349713#2 359349713#0 216243708#1 28490061#1 28490061#2 28490064#0 28490064#2 28490064#3 28490064#4 28490064#5 28490064#6"/>
    </person>
    <person id="302" depart="302.00">
        <walk edges="550301038 218891289 142470465 217365458#2 217365458#1 -362090922#0 362090922#0 358043015#3 358043015#1 358043015#0 452075120#1 452075120#0 358043014#1 142470420 -109573927#1 -109573927#2 -109573927#3 -109573927#4 109573927#4 109573927#3 109573927#2 -360732760 83819551 109573927#0 358043017#0 -358043017#1 -109572701#1 -109572701#2 -109572701#4 109572701#4 109572701#2 109572701#0 -358043014#0 -358043014#1"/>
    </person>
    <person id="305" depart="305.00">
        <walk edges="109573927#2 -360732760 83819551 109573927#0 358043017#0 -358043017#1 -109572701#1 -109572701#2 -109572701#4 109572701#4 109572701#2 109572701#0 -358043014#0 -358043014#1 -452075120#0 -452075120#1 -358043015#0 -358043015#1 -217365458#0 -217365458#1"/>
    </person>
    <person id="306" depart="306.00">
        <walk edges="352512918#0 352512898 352512906 -358043015#1 -217365458#0 -217365458#1 100594720"/>
    </person>
    <person id="310" depart="310.00">
        <walk edges="216268747 159229344#0.2 159229344#0 216243708#1 28490061#1 28490061#2 28490064#0 28490064#2 28490064#3 28490064#4 28490064#5 28490064#6"/>
    </person>
    <person id="313" depart="313.00">
        <walk edges="-452075120#1 -358043015#0 -359144957"/>
    </person>
    <person id="320" depart="320.00">
        <walk edges="216268747 159229344#0.2 159229344#0 216243708#1 775381932 154607611 154607613#0 154607613#1 216268744 142470461 142470465 218891289 550301038 142470433#1 142470433#2 142470433#3 142470433#4 142470433#5 -142470433#5 36356470#0 -36745179 36745180 36356470#9 36356470#10 -25750813#0"/>
    </person>
    <person id="326" depart="326.00">
        <walk edges="109573928#1 218891289 142470465 217365458#2 217365458#1 -362090922#0 362090922#0 358043015#3 358043015#1 358043015#0 452075120#1 452075120#0 358043014#1 142470420 -109573927#1 -109573927#2 -109573927#3 -109573927#4 109573927#4"/>
    </person>
    <person id="337" depart="337.00">
        <walk edges="86552745#1 86552745#0 -358043015#1 352512906 352512898 352512893"/>
    </person>
    <person id="347" depart="347.00">
        <walk edges="28490061#1 775381932 154607611 154607613#0 154607613#1 216268744 142470461 142470465 218891289 550301038 142470433#1 142470433#2 142470433#3 142470433#4 142470433#5 -142470433#5 36356470#0 -36745179 36745180 36356470#9 36356470#10 -25750813#0 215077545 62073539"/>
    </person>
    <person id="355" depart="355.00">
        <walk edges="142470433#5 142470433#4 142470433#3 142470433#2 142470433#1 550301038 218891289 142470465 217365458#2 217365458#1 -362090922#0 362090922#0 358043015#3 358043015#1 358043015#0 452075120#1 452075120#0 358043014#1 142470420 -109573927#1 -109573927#2 -109573927#3 -109573927#4 109573927#4 109573927#3 109573927#2 -360732760 83819551 109573927#0 358043017#0 -358043017#1 -109572701#1 -109572701#2 -109572701#4 109572701#4 109572701#2 109572701#0 -358043014#0 -358043014#1 -452075120#0 -452075120#1 -358043015#0 -358043015#1"/>
    </person>
    <person id="360" depart="360.00">
        <walk edges="217691393#0 217691393#1 215803157 216243708#1 775381932 154607611 154607613#0 154607613#1 216268744 142470461 217365458#2 217365458#1 -362090922#0 362090922#0 358043015#3 358043015#1 358043015#0 452075120#1 452075120#0 358043014#1 142470420 -109573927#1 -109573927#2 -109573927#3 -109573927#4 109573927#4 109573927#3 109573927#2 -360732760 83819551 109573927#0 358043017#0 -358043017#1 -109572701#1 -109572701#2 -109572701#4 109572701#4 109572701#2 109572701#0 -358043014#0 -358043014#1"/>
    </person>
    <person id="363" depart="363.00">
        <walk edges="91731878#0 91731878#1 91731881 -91731866#0 -142470433#2 142470460#0"/>
    </person>
    <person id="377" depart="377.00">
        <walk edges="24610649 28490064#6 28490064#5 28490064#4 28490064#3 28490064#2 28490064#0 28490061#2 28490061#1 216243708#1 -159229344#0"/>
    </person>
    <person id="378" depart="378.00">
        <walk edges="-36745179 36356470#0 -142470433#5 142470433#5 142470433#4 142470433#3 142470433#2 142470433#1 550301038 218891289 142470465 217365458#2 217365458#1 -362090922#0 362090922#0 358043015#3 358043015#1 358043015#0 452075120#1 452075120#0 358043014#1 142470420 -109573927#1 -109573927#2 -109573927#3 -109573927#4 109573927#4 109573927#3 109573927#2 -360732760 83819551 109573927#0 358043017#0 -358043017#1 -109572701#1 -109572701#2 -109572701#4 109572701#4 109572701#2 109572701#0 -358043014#0 -358043014#1 -452075120#0 -452075120#1 -358043015#0"/>
    </person>
    <person id="380" depart="380.00">
        <walk edges="-86552745#1 86552745#0 -358043015#1 -358043015#0 -452075120#1 -452075120#0 -358043014#1 -358043014#0 109572701#0 109572701#2 109572701#4 -109572701#4 -109572701#2 -109572701#1 -358043017#1 358043017#0 109573927#0 83819551 -360732760 109573927#2 109573927#3 109573927#4 -109573927#4 -109573927#3 -109573927#2 -109573927#1 142470420 358043014#1"/>
    </person>
    <person id="387" depart="387.00">
        <walk edges="-216268747 159229344#0.2 159229344#0 216243708#1 775381932 154607611 154607613#0 154607613#1 216268744 142470461 217365458#2 217365458#1 -362090922#0 362090922#0 358043015#3 358043015#1 358043015#0 452075120#1 452075120#0 358043014#1 142470420 -109573927#1 -109573927#2 -109573927#3 -109573927#4 109573927#4 109573927#3 109573927#2 -360732760 83819551 109573927#0 358043017#0 -358043017#1 -109572701#1 -109572701#2 -109572701#4 109572701#4"/>
    </person>
    <person id="391" depart="391.00">
        <walk edges="-358043014#0 109572701#0 109572701#2 109572701#4 -109572701#4 -109572701#2 -109572701#1 -358043017#1 358043017#0 109573927#0 83819551 -360732760 109573927#2 109573927#3 109573927#4 -109573927#4 -109573927#3 -109573927#2 -109573927#1 142470420 358043014#1 452075120#0 452075120#1 358043015#0 358043015#1 358043015#3 362090922#0 -362090922#0 217365458#1 217365458#2 142470461 216268744 154607613#1 154607613#0 154607611 775381932 216243708#1 215803157 217691393#1"/>
    </person>
    <person id="411" depart="411.00">
        <walk edges="28490061#1 775381932 154607611 154607613#0 154607613#1 216268744 142470461 217365458#2 217365458#1 -362090922#0 362090922#0 358043015#3 358043015#1 358043015#0 452075120#1 452075120#0 358043014#1 142470420 -109573927#1 -109573927#2 -109573927#3 -109573927#4 109573927#4 109573927#3 109573927#2 -360732760 83819551 109573927#0 358043017#0 -358043017#1 -109572701#1 -109572701#2 -109572701#4 109572701#4 109572701#2 109572701#0 -358043014#0 -358043014#1 -452075120#0 -452075120#1 -358043015#0 -358043015#1 86552745#0 86552745#1"/>
    </person>
    <person id="418" depart="418.00">
        <walk edges="142470423#1 142470423#2 142470423#3 142470423#4 142470423#5 745155172 745156630 62073558#0 62073558#1 216657574"/>
    </person>
    <person id="427" depart="427.00">
        <walk edges="-217365458#2 -217365458#1 -217365458#0 -358043015#1 -358043015#0 -452075120#1 -452075120#0 -358043014#1 -358043014#0 109572701#0 109572701#2 109572701#4 -109572701#4 -109572701#2 -109572701#1 -358043017#1 358043017#0 109573927#0 83819551 -360732760 109573927#2 109573927#3 109573927#4 -109573927#4 -109573927#3 -109573927#2"/>
    </person>
    <person id="441" depart="441.00">
        <walk edges="97855879 217365460#2 154607611 154607613#0 154607613#1 216268744 142470461 217365458#2 217365458#1 -362090922#0 362090922#0 358043015#3 358043015#1 358043015#0 452075120#1 452075120#0 358043014#1 142470420 -109573927#1 -109573927#2 -109573927#3 -109573927#4 109573927#4 109573927#3 109573927#2 -360732760 83819551 109573927#0 358043017#0 -358043017#1 -109572701#1 -109572701#2 -109572701#4 109572701#4 109572701#2 109572701#0 -358043014#0 -358043014#1 -452075120#0 -452075120#1 -358043015#0 352512906 352512898 352512918#0"/>
    </person>
    <person id="446" depart="446.00">
        <walk edges="-159229344#0 215803157 217691393#1"/>
    </person>
    <person id="475" depart="475.00">
        <walk edges="-358043017#1 358043017#0 109573927#0 83819551 -360732760 109573927#2 109573927#3 109573927#4 -109573927#4 -109573927#3 -109573927#2 -109573927#1 142470420 358043014#1 452075120#0 452075120#1 358043015#0 358043015#1 358043015#3 362090922#0 -362090922#0 217365458#1 217365458#2 142470461 216268744 154607613#1 154607613#0"/>
    </person>
    <person id="476" depart="476.00">
        <walk edges="-109573936 -109573928#0 -109573928#1.8 218891289 142470465 142470461 216268744 154607613#1 154607613#0 154607611 775381932 28490061#1"/>
    </person>
    <person id="488" depart="488.00">
        <walk edges="-142470433#4 -36356470#0"/>
    </person>
    <person id="495" depart="495.00">
        <walk edges="-358043017#1 -109572701#1 -109572701#2 -109572701#4 109572701#4 109572701#2 109572701#0 -358043014#0 -358043014#1 -452075120#0 -452075120#1 -358043015#0 -358043015#1 86552745#0 86552745#1"/>
    </person>
    <person id="498" depart="498.00">
        <walk edges="362090922#0 358043015#3 358043015#1 358043015#0 452075120#1 452075120#0 358043014#1 142470420 -109573927#1 -109573927#2 -109573927#3 -109573927#4 109573927#4 109573927#3 109573927#2 -360732760 83819551 109573927#0 358043017#0 -358043017#1 -109572701#1 -109572701#2 -109572701#4 109572701#4 109572701#2 109572701#0 -358043014#0 -358043014#1 -452075120#0 -452075120#1 -358043015#0 -358043015#1 86552745#0 -86552745#1"/>
    </person>
    <person id="510" depart="510.00">
        <walk edges="142470423#3 142470423#4 142470423#5 745155172 745156630 62073558#0 62073558#1"/>
    </person>
    <person id="513" depart="513.00">
        <walk edges="-142470433#1 550301038 218891289 142470465 217365458#2 217365458#1"/>
    </person>
    <person id="530" depart="530.00">
        <walk edges="-142470423#0 -159229344#0 216243708#1 775381932 154607611 154607613#0 154607613#1 216268744 142470461 217365458#2 217365458#1 -362090922#0 362090922#0 358043015#3 358043015#1 358043015#0 452075120#1 452075120#0 358043014#1 142470420 -109573927#1 -109573927#2 -109573927#3 -109573927#4 109573927#4 109573927#3 109573927#2 -360732760 83819551 109573927#0 358043017#0 -358043017#1 -109572701#1 -109572701#2 -109572701#4 109572701#4 109572701#2 109572701#0 -358043014#0 -358043014#1"/>
    </person>
    <person id="535" depart="535.00">
        <walk edges="-86552745#1 86552745#0 -358043015#1 -358043015#0 -452075120#1 -452075120#0 -358043014#1 -358043014#0 109572701#0 109572701#2 109572701#4 -109572701#4"/>
    </person>
    <person id="545" depart="545.00">
        <walk edges="154607611 154607613#0 154607613#1 216268744 142470461 217365458#2 217365458#1 -362090922#0 362090922#0 358043015#3 358043015#1 358043015#0 452075120#1 452075120#0 358043014#1 142470420 -109573927#1 -109573927#2 -109573927#3 -109573927#4 109573927#4 109573927#3 109573927#2 -360732760 83819551 109573927#0 358043017#0 -358043017#1 -109572701#1 -109572701#2 -109572701#4 109572701#4 109572701#2 109572701#0 -358043014#0 -358043014#1 -452075120#0 -452075120#1 -358043015#0 -358043015#1 -217365458#0 -217365458#1 -217365458#2"/>
    </person>
    <person id="547" depart="547.00">
        <walk edges="-36732107 36732107 -36356470#2 -36542709 36542709 -36356470#3 -36356611 36356611 -36356470#4 -36805519 36805519 -36356470#5 -36831847 36831847"/>
    </person>
    <person id="551" depart="551.00">
        <walk edges="28490064#3 28490064#2 28490064#0 28490061#2 28490061#1 216243708#1 159229344#0"/>
    </person>
    <person id="552" depart="552.00">
        <walk edges="359349713#2 359349713#0 216243708#1 775381932 154607611 154607613#0 154607613#1 216268744 142470461 217365458#2 217365458#1 -362090922#0 362090922#0 358043015#3 358043015#1 358043015#0 452075120#1 452075120#0 358043014#1 142470420 -109573927#1 -109573927#2 -109573927#3"/>
    </person>
    <person id="559" depart="559.00">
        <walk edges="-217365458#0 -358043015#1 -358043015#0 -452075120#1 -452075120#0 -358043014#1 -358043014#0 109572701#0 109572701#2 109572701#4 -109572701#4 -109572701#2 -109572701#1 -358043017#1 358043017#0 109573927#0 83819551 -360732760 109573927#2 109573927#3 109573927#4 -109573927#4 -109573927#3 -109573927#2 -109573927#1 142470420 358043014#1 452075120#0 452075120#1 358043015#0 358043015#1 358043015#3 362090922#0 -362090922#0 217365458#1 217365458#2 142470465 218891289 550301038 142470433#1 142470433#2 142470433#3 142470433#4"/>
    </person>
    <person id="560" depart="560.00">
        <walk edges="-109572701#1 -358043017#1 358043017#0 109573927#0 83819551 -360732760 109573927#2 109573927#3 109573927#4 -109573927#4 -109573927#3 -109573927#2 -109573927#1 142470420 358043014#1 452075120#0 452075120#1 358043015#0 358043015#1 358043015#3 362090922#0 -362090922#0 217365458#1 217365458#2 142470465 218891289 109573928#1"/>
    </person>
    <person id="563" depart="563.00">
        <walk edges="-86552745#0 -358043015#1 -358043015#0 -452075120#1 -452075120#0 -358043014#1 -358043014#0 109572701#0 109572701#2"/>
    </person>
    <person id="568" depart="568.00">
        <walk edges="100594720 -217365458#1 -217365458#0 -358043015#1 -358043015#0 -452075120#1 -452075120#0 -358043014#1 -358043014#0 109572701#0 109572701#2 109572701#4 -109572701#4 -109572701#2 -109572701#1 -358043017#1 358043017#0 109573927#0 83819551 -360732760 109573927#2 109573927#3 109573927#4 -109573927#4 -109573927#3 -109573927#2 -109573927#1 142470420 358043014#1 452075120#0 452075120#1"/>
    </person>
    <person id="574" depart="574.00">
        <walk edges="-36745179 36356470#0 -142470433#5 142470433#5 142470433#4 142470433#3 142470433#2 142470433#1 550301038 218891289 142470465 142470461 216268744 154607613#1 154607613#0 154607611 775381932 216243708#1 -159229344#0"/>
    </person>
    <person id="576" depart="576.00">
        <walk edges="-109573927#3 -109573927#2 -109573927#1 142470420 358043014#1 452075120#0 452075120#1 358043015#0 358043015#1 358043015#3 362090922#0 -362090922#0 217365458#1 217365458#2 142470465 218891289 550301038 142470433#1 142470433#2 142470433#3 142470433#4 142470433#5 -142470433#5 36356470#0 -36745179 36745180 36356470#9 36356470#10 -25750813#0 215077545 62073539 217159012#0 62073577#0"/>
    </person>
    <person id="581" depart="581.00">
        <walk edges="215803174#0 215803157 216243708#1 28490061#1 28490061#2 28490064#0 28490064#2 28490064#3 28490064#4 28490064#5 28490064#6 24610649 217365467#0 28370559#5 28370559#6 28370559#7 28370559#8"/>
    </person>
    <person id="592" depart="592.00">