<?xml version="1.0" encoding="UTF-8"?>

<!-- generated on 03/09/20 19:23:23 by Eclipse SUMO polyconvert Version 1.5.0
<configuration xmlns:xsi="http://www.w3.org/2001/XMLSchema-instance" xsi:noNamespaceSchemaLocation="http://sumo.dlr.de/xsd/polyconvertConfiguration.xsd">

    <input>
        <net-file value="anchieta.net.xml"/>
        <osm-files value="anchieta.osm"/>
        <type-file value="osmPolyconvert.typ.xml"/>
    </input>

    <output>
        <output-file value="anchieta.poly.xml"/>
    </output>

    <processing>
        <poi-layer-offset value="5"/>
    </processing>

</configuration>
-->

<additional xmlns:xsi="http://www.w3.org/2001/XMLSchema-instance" xsi:noNamespaceSchemaLocation="http://sumo.dlr.de/xsd/additional_file.xsd">
    <location netOffset="-369896.65,-3149637.98" convBoundary="-2110.01,-420.20,3153.36,2598.80" origBoundary="-16.350710,28.463361,-16.296688,28.490309" projParameter="+proj=utm +zone=28 +ellps=WGS84 +datum=WGS84 +units=m +no_defs"/>

    <poly id="100594714" type="amenity" color="237,199,199" fill="1" layer="-1.00" shape="891.501127,1649.102921 889.472665,1639.141009 904.878615,1636.035197 907.021009,1645.674503 891.501127,1649.102921"/>
    <poly id="100594714#1" type="building" color="255,230,230" fill="1" layer="-1.00" shape="891.501127,1649.102921 889.472665,1639.141009 904.878615,1636.035197 907.021009,1645.674503 891.501127,1649.102921"/>
    <poly id="100594718" type="amenity" color="237,199,199" fill="1" layer="-1.00" shape="940.823503,1621.146043 929.981561,1611.912570 942.548282,1597.224856 954.728439,1582.995735 960.241321,1587.511741 965.823335,1592.082397 940.823503,1621.146043"/>
    <poly id="100594718#1" type="building" color="255,230,230" fill="1" layer="-1.00" shape="940.823503,1621.146043 929.981561,1611.912570 942.548282,1597.224856 954.728439,1582.995735 960.241321,1587.511741 965.823335,1592.082397 940.823503,1621.146043"/>
    <poly id="100594723" type="amenity" color="237,199,199" fill="1" layer="-1.00" shape="879.413526,1636.104477 877.204163,1626.609966 876.146078,1621.202865 877.376404,1620.901232 878.821494,1620.541832 892.100804,1617.248832 923.463649,1609.490892 926.723075,1624.558821 882.480158,1635.405901 879.413526,1636.104477"/>
    <poly id="100594723#1" type="building" color="255,230,230" fill="1" layer="-1.00" shape="879.413526,1636.104477 877.204163,1626.609966 876.146078,1621.202865 877.376404,1620.901232 878.821494,1620.541832 892.100804,1617.248832 923.463649,1609.490892 926.723075,1624.558821 882.480158,1635.405901 879.413526,1636.104477"/>
    <poly id="109749521" type="leisure" color="207,245,201" fill="1" layer="-2.00" shape="1458.055382,1308.271392 1458.715759,1260.337915 1518.205420,1261.150039 1517.764004,1293.312542 1486.153801,1292.882523 1485.934641,1308.653487 1458.055382,1308.271392"/>
    <poly id="109749525" type="residential" color="235,235,227" fill="1" layer="-3.00" shape="1707.545123,1811.723330 1674.833445,1854.632443 1648.763176,1861.987049 1644.758501,1884.359450 1663.130760,1884.834691 1665.261691,1943.674826 1665.567834,1951.982393 1638.316149,2015.166031 1632.009212,2015.888738 1634.192410,1969.290525 1629.303563,1957.331906 1632.576157,1928.894988 1589.978724,1912.871665 1530.329141,2021.576799 1505.051098,1994.803996 1503.006619,1960.053481 1505.035688,1932.527693 1574.268530,1601.506072 1577.446183,1552.736162 1598.407601,1495.328020 1781.470051,1203.943395 1840.103961,1145.127501 2057.135145,951.822700 2100.355777,1015.866886 2154.930355,1120.101024 2151.587120,1141.291370 2078.681800,1234.789958 2079.079206,1245.213028 2079.257676,1247.216780 2092.036514,1388.573346 2078.624646,1456.181624 2048.006381,1515.322883 1984.772021,1636.165060 1907.784712,1661.958999 1844.165277,1666.509027 1727.453017,1733.139639 1707.545123,1811.723330"/>
    <poly id="113830373" type="residential" color="235,235,227" fill="1" layer="-3.00" shape="320.229534,1729.095840 330.511906,1739.930650 369.464380,1772.323533 375.160370,1775.673719 404.239924,1797.969792 410.823964,1789.519727 481.537377,1700.278218 483.435577,1700.168643 495.681615,1715.957432 528.851835,1764.748344 535.688201,1760.528617 562.784969,1742.400309 561.237855,1737.940523 579.295764,1737.398073 595.371428,1736.445313 595.826262,1736.850310 601.717953,1850.423754 603.549899,1887.858244 617.120126,1906.569096 617.772473,1914.241227 615.076756,1921.052648 600.315136,1940.840148 633.161554,1962.097947 570.650842,2026.248883 582.584166,2051.017019 568.938081,2063.622703 548.833733,2029.447971 564.395834,2017.463867 553.327908,1993.938395 521.469641,2022.369412 529.806298,2039.697285 504.537366,2050.381113 527.403551,2103.285925 490.425821,2116.669700 479.375328,2119.595095 470.271733,2125.945309 475.998403,2161.397644 440.130025,2183.024908 429.449747,2160.038250 393.936189,2157.914569 382.703900,2162.991832 391.756831,2127.210236 315.623973,2107.461447 312.028879,2202.168511 292.647329,2201.584650 289.791017,2252.346299 254.145682,2263.976382 126.993581,2273.227065 91.859819,2270.014144 100.909480,2227.827322 127.174414,2232.024830 122.118068,2152.805190 -7.393775,2141.793511 -17.177694,2076.921084 -46.837703,2068.539490 -47.940777,2052.029491 -37.902854,2022.198342 -22.599080,2027.613923 -18.059445,2005.212712 -3.494479,2011.988413 -9.816139,2029.954659 6.158969,2032.337655 20.763967,1987.873050 31.570123,1991.177614 45.068431,1944.896880 69.387444,1951.908298 133.789367,1747.267342 138.435783,1711.456689 145.288778,1702.549164 130.868561,1657.519085 86.258099,1577.506749 104.478940,1558.023871 83.021333,1534.480679 132.858443,1469.935358 185.711624,1515.272130 222.479148,1470.297092 199.208699,1450.153506 213.531753,1432.320661 256.632617,1416.441707 279.806913,1421.671077 286.126284,1412.293048 376.110823,1411.876268 417.823884,1381.108929 405.248922,1360.392671 451.664650,1331.645800 526.967391,1298.735610 557.754705,1297.332630 548.211639,1358.063311 550.594418,1377.938999 589.093069,1483.762027 592.569654,1503.392969 591.788871,1516.953946 593.182161,1545.672303 440.070380,1544.611453 440.227941,1554.460960 439.443110,1620.912883 433.376634,1618.597307 369.119389,1567.124381 349.003567,1540.906422 339.926339,1550.569722 327.207801,1566.523052 323.615441,1571.039532 300.930645,1554.246922 244.258631,1625.848193 245.961171,1626.638324 252.081891,1631.202705 254.540065,1633.037214 267.041400,1642.650693 258.250787,1653.430108 259.327006,1667.546850 292.100779,1663.472766 294.465212,1663.912077 278.237276,1685.666477 272.752265,1695.223690 291.195645,1710.079515 292.847513,1709.828572 320.229534,1729.095840"/>
    <poly id="113856670" type="residential" color="235,235,227" fill="1" layer="-3.00" shape="1303.837539,2270.059269 1327.256557,2338.052044 1599.256130,2314.675061 1575.148175,2305.309030 1519.062734,2310.919991 1501.198033,2240.439338 1544.794019,2235.064611 1512.163511,2073.990196 1510.348880,2062.042322 1508.988632,2053.147895 1507.553314,2043.655905 1506.730732,2038.268346 1506.245402,2035.071181 1506.076412,2033.942744 1505.051098,1994.803996 1503.006619,1960.053481 1505.035688,1932.527693 1574.268530,1601.506072 1525.476034,1594.781297 1231.838963,1699.200619 1183.909567,1716.713549 1180.212504,1718.848438 1178.827979,1719.373355 1172.101874,1722.062277 1133.197935,1736.739395 1125.626062,1739.083022 1122.308565,1740.116724 1115.693151,1742.183915 1134.789383,1794.355451 1181.411161,1924.602754 1198.974239,1971.826797 1222.116426,2035.899669 1238.411139,2084.445252 1247.064487,2110.225094 1250.710110,2120.379875 1273.895294,2184.851288 1298.674054,2251.820721 1303.837539,2270.059269"/>
    <poly id="114117033" type="residential" color="235,235,227" fill="1" layer="-3.00" shape="1552.769288,1021.207538 1558.118253,1035.809512 1578.664865,1079.233836 1592.753620,1126.651501 1611.806528,1160.639928 1604.483216,1185.774547 1597.455674,1196.755241 1595.606424,1201.351986 1596.555041,1231.715209 1595.606822,1261.423208 1588.339141,1282.678815 1587.278380,1352.258238 1587.805991,1372.763792 1587.339470,1408.915798 1590.720823,1415.505410 1597.972346,1419.659188 1605.572475,1419.875332 1612.433116,1416.930334 1636.250685,1380.733760 1768.686118,1182.707256 1896.064999,1062.017853 1923.641154,912.353936 1881.611267,901.077068 1789.992331,848.011056 1768.844194,841.847931 1746.613817,843.287270 1720.998010,853.916671 1696.533895,867.791429 1681.358149,900.159075 1744.234377,889.034248 1758.313713,941.915210 1622.651204,976.540223 1577.465120,982.884785 1564.283301,991.594610 1559.162953,997.911451 1553.041487,1010.278494 1552.769288,1021.207538"/>
    <poly id="114119530" type="residential" color="235,235,227" fill="1" layer="-3.00" shape="1265.012949,1110.545919 1266.236851,1134.678491 1269.713846,1136.568535 1305.814353,1139.286955 1304.853028,1159.686926 1302.806677,1159.687175 1188.510939,1159.377005 1138.619113,1158.849114 1059.177213,1159.188612 1057.985951,1122.899572 1058.811331,1113.349576 1265.012949,1110.545919"/>
    <poly id="114119531" type="leisure" color="207,245,201" fill="1" layer="-2.00" shape="1326.169370,1107.017175 1317.794212,1078.962588 1335.010260,1073.876186 1343.385379,1101.930784 1326.169370,1107.017175"/>
    <poly id="114119531#1" type="sport" color="79,230,125" fill="1" layer="-2.00" shape="1326.169370,1107.017175 1317.794212,1078.962588 1335.010260,1073.876186 1343.385379,1101.930784 1326.169370,1107.017175"/>
    <poly id="114119532" type="tourism" color="207,245,201" fill="1" layer="-2.00" shape="1139.250870,1133.421852 1139.509581,1113.262264 1163.472848,1113.642234 1163.518630,1133.000633 1139.250870,1133.421852"/>
    <poly id="114119533" type="tourism" color="207,245,201" fill="1" layer="-2.00" shape="1138.619113,1158.849114 1138.639854,1141.096761 1187.136204,1142.936455 1188.510939,1159.377005 1138.619113,1158.849114"/>
    <poly id="114119535" type="residential" color="235,235,227" fill="1" layer="-3.00" shape="1065.224153,1404.216962 1061.930685,1275.389438 1063.263891,1271.075291 1065.211053,1270.067696 1194.944796,1272.024708 1201.749648,1274.709346 1203.772291,1277.014234 1204.140945,1282.063232 1202.385240,1288.033094 1089.626967,1413.479080 1086.029365,1414.870459 1080.292128,1414.002581 1074.851021,1411.569002 1071.058251,1407.665698 1065.224153,1404.216962"/>
    <poly id="114119536" type="tourism" color="207,245,201" fill="1" layer="-2.00" shape="1304.853028,1159.686926 1341.553274,1161.745092 1359.512904,1141.413906 1368.842519,1127.870265 1372.546660,1118.310956 1374.710443,1110.253391 1361.698391,1071.833188 1361.395773,1062.971528 1318.184637,1035.929945 1296.915239,1061.605338 1289.665073,1068.333474 1272.052780,1077.468928 1263.461921,1079.790360 1265.012949,1110.545919 1266.236851,1134.678491 1303.406263,1133.972179 1305.805921,1128.682320 1308.471764,1127.134999 1312.455817,1127.047046 1317.885826,1131.143041 1318.318874,1136.712152 1314.605494,1140.952597 1311.373130,1141.730436 1308.038339,1141.201813 1305.814353,1139.286955 1304.853028,1159.686926"/>
    <poly id="117402383" type="amenity" color="237,199,199" fill="1" layer="-1.00" shape="644.008420,1288.803237 646.461720,1347.119023 656.238495,1346.712209 656.515307,1353.180613 659.813390,1353.044579 659.549053,1346.819825 670.216340,1346.369976 669.564792,1328.093083 667.748246,1287.588941 657.677846,1288.010057 657.425738,1282.006794 653.667631,1282.158973 653.932093,1288.394806 644.008420,1288.803237"/>
    <poly id="117402383#1" type="building" color="255,230,230" fill="1" layer="-1.00" shape="644.008420,1288.803237 646.461720,1347.119023 656.238495,1346.712209 656.515307,1353.180613 659.813390,1353.044579 659.549053,1346.819825 670.216340,1346.369976 669.564792,1328.093083 667.748246,1287.588941 657.677846,1288.010057 657.425738,1282.006794 653.667631,1282.158973 653.932093,1288.394806 644.008420,1288.803237"/>
    <poly id="117402385" type="building" color="255,230,230" fill="1" layer="-1.00" shape="550.688443,1557.997335 510.467772,1558.019436 510.474682,1571.084168 550.695309,1571.062065 550.688443,1557.997335"/>
    <poly id="117402387" type="building" color="255,230,230" fill="1" layer="-1.00" shape="552.998427,1589.930240 553.130815,1577.063438 589.439330,1577.428086 589.306901,1590.294886 552.998427,1589.930240"/>
    <poly id="117402388" type="building" color="255,230,230" fill="1" layer="-1.00" shape="725.625288,1574.322139 717.353958,1575.388297 718.027885,1580.577989 719.191269,1580.421132 719.587378,1583.497362 731.046231,1582.041536 729.751361,1572.027249 725.400566,1572.584855 725.625288,1574.322139"/>
    <poly id="117402391" type="amenity" color="237,199,199" fill="1" layer="-1.00" shape="651.420355,1448.912235 653.991481,1503.702896 685.981662,1502.220496 688.897781,1502.077591 686.623072,1453.744038 686.326818,1447.286929 651.420355,1448.912235"/>
    <poly id="117402391#1" type="building" color="255,230,230" fill="1" layer="-1.00" shape="651.420355,1448.912235 653.991481,1503.702896 685.981662,1502.220496 688.897781,1502.077591 686.623072,1453.744038 686.326818,1447.286929 651.420355,1448.912235"/>
    <poly id="117402392" type="building" color="255,230,230" fill="1" layer="-1.00" shape="673.626733,1571.714044 674.311533,1577.889847 680.178991,1577.249041 680.450317,1579.661768 674.670968,1580.301604 675.811689,1590.539209 690.137925,1588.963132 689.344262,1581.791214 687.398193,1582.001014 686.279255,1571.962631 678.553831,1572.812264 678.379269,1571.185241 673.626733,1571.714044"/>
    <poly id="117402394" type="amenity" color="237,199,199" fill="1" layer="-1.00" shape="612.916043,1292.735875 613.896320,1348.862712 623.303764,1348.703724 623.428958,1355.628129 626.776843,1355.569106 626.660831,1348.589194 636.342390,1348.427199 635.303697,1289.652589 624.104898,1289.853450 623.981902,1283.128484 619.165509,1283.203675 619.337854,1292.631924 612.916043,1292.735875"/>
    <poly id="117402394#1" type="building" color="255,230,230" fill="1" layer="-1.00" shape="612.916043,1292.735875 613.896320,1348.862712 623.303764,1348.703724 623.428958,1355.628129 626.776843,1355.569106 626.660831,1348.589194 636.342390,1348.427199 635.303697,1289.652589 624.104898,1289.853450 623.981902,1283.128484 619.165509,1283.203675 619.337854,1292.631924 612.916043,1292.735875"/>
    <poly id="117402398" type="building" color="255,230,230" fill="1" layer="-1.00" shape="714.292054,1511.560731 714.763764,1515.278841 711.967441,1515.630966 713.199812,1525.302420 718.733716,1524.598818 719.183773,1528.128785 702.014997,1530.312327 700.354816,1517.354450 708.166800,1516.359824 707.663036,1512.398279 714.292054,1511.560731"/>
    <poly id="117402401" type="amenity" color="237,199,199" fill="1" layer="-1.00" shape="730.861357,1449.545049 730.913666,1445.400086 726.986991,1445.354636 727.248653,1424.640901 729.814188,1424.668082 729.864508,1421.232341 735.475523,1421.303588 735.427151,1424.916608 739.265724,1424.963030 739.100787,1438.450726 749.627603,1438.589796 749.504288,1448.741577 752.569217,1448.774351 752.560972,1449.804998 730.861357,1449.545049"/>
    <poly id="117402401#1" type="building" color="255,230,230" fill="1" layer="-1.00" shape="730.861357,1449.545049 730.913666,1445.400086 726.986991,1445.354636 727.248653,1424.640901 729.814188,1424.668082 729.864508,1421.232341 735.475523,1421.303588 735.427151,1424.916608 739.265724,1424.963030 739.100787,1438.450726 749.627603,1438.589796 749.504288,1448.741577 752.569217,1448.774351 752.560972,1449.804998 730.861357,1449.545049"/>
    <poly id="117402404" type="building" color="255,230,230" fill="1" layer="-1.00" shape="666.298571,1571.296050 667.043853,1576.739824 653.278909,1578.608943 652.863569,1575.566170 650.614994,1575.867955 653.030457,1593.394073 668.339954,1591.308489 666.871533,1580.653404 671.173009,1580.063075 669.896170,1570.802119 666.298571,1571.296050"/>
    <poly id="117402405" type="amenity" color="237,199,199" fill="1" layer="-1.00" shape="700.272139,1434.212726 700.008848,1444.986600 707.549900,1445.169570 707.813199,1434.395697 700.272139,1434.212726"/>
    <poly id="117402405#1" type="building" color="255,230,230" fill="1" layer="-1.00" shape="700.272139,1434.212726 700.008848,1444.986600 707.549900,1445.169570 707.813199,1434.395697 700.272139,1434.212726"/>
    <poly id="117402407" type="amenity" color="237,199,199" fill="1" layer="-1.00" shape="649.049553,1414.098872 648.953825,1411.628806 644.980384,1411.783360 644.897616,1409.601264 640.425138,1409.783476 640.505711,1411.766134 637.139116,1411.902928 635.566559,1372.227190 638.727700,1372.103739 638.617179,1369.179505 628.507446,1369.578920 628.628735,1372.591685 616.013538,1373.085183 619.093852,1450.985731 632.472324,1450.461666 632.595930,1453.684950 642.500006,1453.287800 642.324679,1448.923716 639.359354,1449.045011 638.014462,1414.929555 640.842861,1414.820848 641.058292,1420.159641 645.579836,1419.987970 645.376149,1414.826348 649.153793,1414.673950 650.185912,1440.836509 654.374597,1440.668505 654.307109,1438.984898 664.632035,1438.572052 663.875260,1419.631440 668.563110,1419.446866 668.346716,1414.019434 673.582675,1413.817749 673.516166,1412.222781 673.462007,1410.860383 677.875867,1410.689910 677.711076,1406.392198 682.320612,1406.208492 681.807028,1393.348811 679.722406,1393.427160 679.058452,1376.690696 682.023918,1376.580491 681.822198,1371.596148 681.778562,1370.300122 673.743544,1370.610177 673.662489,1368.583200 678.683091,1368.383888 678.563400,1365.515162 678.426481,1361.970668 654.331444,1362.922910 654.574131,1368.959521 657.490527,1368.838769 657.612053,1371.873694 648.696195,1372.215625 648.980451,1379.359904 654.089158,1379.159612 654.264967,1383.568015 650.908154,1383.704698 651.381059,1395.534270 648.679923,1395.641573 649.143895,1407.548813 663.236828,1406.994758 663.494789,1413.529857 649.049553,1414.098872"/>
    <poly id="117402407#1" type="building" color="255,230,230" fill="1" layer="-1.00" shape="649.049553,1414.098872 648.953825,1411.628806 644.980384,1411.783360 644.897616,1409.601264 640.425138,1409.783476 640.505711,1411.766134 637.139116,1411.902928 635.566559,1372.227190 638.727700,1372.103739 638.617179,1369.179505 628.507446,1369.578920 628.628735,1372.591685 616.013538,1373.085183 619.093852,1450.985731 632.472324,1450.461666 632.595930,1453.684950 642.500006,1453.287800 642.324679,1448.923716 639.359354,1449.045011 638.014462,1414.929555 640.842861,1414.820848 641.058292,1420.159641 645.579836,1419.987970 645.376149,1414.826348 649.153793,1414.673950 650.185912,1440.836509 654.374597,1440.668505 654.307109,1438.984898 664.632035,1438.572052 663.875260,1419.631440 668.563110,1419.446866 668.346716,1414.019434 673.582675,1413.817749 673.516166,1412.222781 673.462007,1410.860383 677.875867,1410.689910 677.711076,1406.392198 682.320612,1406.208492 681.807028,1393.348811 679.722406,1393.427160 679.058452,1376.690696 682.023918,1376.580491 681.822198,1371.596148 681.778562,1370.300122 673.743544,1370.610177 673.662489,1368.583200 678.683091,1368.383888 678.563400,1365.515162 678.426481,1361.970668 654.331444,1362.922910 654.574131,1368.959521 657.490527,1368.838769 657.612053,1371.873694 648.696195,1372.215625 648.980451,1379.359904 654.089158,1379.159612 654.264967,1383.568015 650.908154,1383.704698 651.381059,1395.534270 648.679923,1395.641573 649.143895,1407.548813 663.236828,1406.994758 663.494789,1413.529857 649.049553,1414.098872"/>
    <poly id="117402408" type="building" color="255,230,230" fill="1" layer="-1.00" shape="504.427226,1576.713611 504.370257,1590.200135 544.445927,1590.356905 544.503064,1576.881463 504.427226,1576.713611"/>
    <poly id="117402409" type="building" color="255,230,230" fill="1" layer="-1.00" shape="676.890366,1516.859159 686.413442,1516.543804 686.544717,1520.465123 686.133671,1520.480728 686.321541,1525.986044 685.724491,1526.003696 685.841464,1529.515166 674.762323,1529.891973 674.672121,1527.034002 677.304942,1526.949618 677.118531,1521.577261 674.104031,1521.676928 673.958939,1517.390080 676.904911,1517.291167 676.890366,1516.859159"/>
    <poly id="117402410" type="amenity" color="237,199,199" fill="1" layer="-1.00" shape="674.732504,1327.914313 675.201413,1341.162329 681.553449,1340.948365 681.782151,1347.494868 695.503872,1347.011427 695.272008,1340.176848 708.161965,1339.735819 708.379522,1346.160550 722.698425,1345.670571 722.001134,1325.898214 721.443918,1309.958427 705.833071,1310.495865 706.005776,1315.513770 699.927844,1315.724704 693.820542,1315.935963 693.638529,1310.962485 681.061817,1311.400080 681.519831,1324.548484 669.452084,1324.969410 669.564792,1328.093083 672.305225,1327.996434 674.732504,1327.914313"/>
    <poly id="117402410#1" type="building" color="255,230,230" fill="1" layer="-1.00" shape="674.732504,1327.914313 675.201413,1341.162329 681.553449,1340.948365 681.782151,1347.494868 695.503872,1347.011427 695.272008,1340.176848 708.161965,1339.735819 708.379522,1346.160550 722.698425,1345.670571 722.001134,1325.898214 721.443918,1309.958427 705.833071,1310.495865 706.005776,1315.513770 699.927844,1315.724704 693.820542,1315.935963 693.638529,1310.962485 681.061817,1311.400080 681.519831,1324.548484 669.452084,1324.969410 669.564792,1328.093083 672.305225,1327.996434 674.732504,1327.914313"/>
    <poly id="117402411" type="amenity" color="237,199,199" fill="1" layer="-1.00" shape="725.029865,1311.957926 725.652673,1324.960460 728.549257,1324.817781 731.240376,1324.688445 731.441381,1328.719808 728.652365,1328.850221 725.922088,1328.979989 726.542701,1341.783085 728.979401,1341.667628 745.918824,1340.860737 749.402552,1340.689442 748.794069,1328.096757 745.594122,1328.253848 742.697539,1328.396523 742.505596,1324.298573 745.490289,1324.154929 748.592460,1324.009994 747.958303,1310.863529 745.169404,1311.005018 728.220149,1311.812016 725.029865,1311.957926"/>
    <poly id="117402411#1" type="building" color="255,230,230" fill="1" layer="-1.00" shape="725.029865,1311.957926 725.652673,1324.960460 728.549257,1324.817781 731.240376,1324.688445 731.441381,1328.719808 728.652365,1328.850221 725.922088,1328.979989 726.542701,1341.783085 728.979401,1341.667628 745.918824,1340.860737 749.402552,1340.689442 748.794069,1328.096757 745.594122,1328.253848 742.697539,1328.396523 742.505596,1324.298573 745.490289,1324.154929 748.592460,1324.009994 747.958303,1310.863529 745.169404,1311.005018 728.220149,1311.812016 725.029865,1311.957926"/>
    <poly id="117402412" type="leisure" color="207,245,201" fill="1" layer="-2.00" shape="679.933876,1570.990830 681.745886,1569.275455 683.662589,1569.065978 685.227683,1569.824441 686.524431,1570.220176 687.649180,1569.221565 687.987829,1567.965657 687.529978,1566.397157 685.826609,1565.529404 683.936592,1565.494799 680.273025,1566.222158 678.540462,1567.149890 677.820017,1568.410001 677.999369,1569.582640 678.458840,1570.408677 679.111421,1570.988801 679.933876,1570.990830"/>
    <poly id="117402413" type="building" color="255,230,230" fill="1" layer="-1.00" shape="587.106116,1596.713013 544.710205,1596.570581 544.667399,1609.569372 548.231440,1609.585510 548.232440,1608.787648 554.263837,1608.809848 554.266180,1608.133865 560.023345,1608.148008 560.032671,1607.217079 566.299020,1607.236697 566.298923,1606.339116 573.368145,1606.360974 573.364021,1605.097756 580.697686,1605.127787 584.682682,1605.139300 584.693527,1602.568328 587.082568,1602.575258 587.106116,1596.713013"/>
    <poly id="117424973" type="residential" color="235,235,227" fill="1" layer="-3.00" shape="1017.569764,989.260203 1008.346599,980.363474 1010.309267,955.785926 1001.220825,918.131930 922.221355,910.765961 922.450202,847.799883 1003.363452,850.180478 1002.451518,819.728190 1041.499004,820.540775 1042.293337,795.665788 1064.230791,796.078897 1063.974391,820.903654 1084.350401,820.901760 1092.548863,822.961593 1078.018995,874.792720 1064.797586,968.230611 1087.811973,972.233331 1077.066095,1020.886986 1068.129000,1020.209346 1065.294322,1041.172886 1037.296405,1038.964655 1037.400016,1041.268414 954.088150,1031.655779 955.931957,1013.207441 987.795663,1017.921727 1037.491593,1018.384670 1041.041476,991.218866 1017.569764,989.260203"/>
    <poly id="117424976" type="building" color="255,230,230" fill="1" layer="-1.00" shape="990.033807,865.918079 990.999633,858.460891 966.446828,857.943663 966.400148,866.177530 975.730863,866.130498 990.033807,865.918079"/>
    <poly id="117424978" type="building" color="255,230,230" fill="1" layer="-1.00" shape="957.386051,897.736115 957.679482,905.733542 947.605349,905.844160 947.548109,901.523108 945.188666,901.549017 944.879378,898.349937 957.386051,897.736115"/>
    <poly id="117424979" type="building" color="255,230,230" fill="1" layer="-1.00" shape="955.742882,865.795886 958.464572,865.766002 958.387321,858.730269 945.581789,858.881958 945.659047,865.917691 948.909410,865.882000 953.011403,865.825878 955.742882,865.795886"/>
    <poly id="117424981" type="building" color="255,230,230" fill="1" layer="-1.00" shape="1064.866766,937.944857 1063.522359,947.489462 1059.586707,947.532642 1058.715178,951.985776 1051.216884,950.372618 1050.260744,947.114147 1050.347898,943.456385 1044.826056,942.608313 1045.411728,936.196937 1064.866766,937.944857"/>
    <poly id="117424982" type="building" color="255,230,230" fill="1" layer="-1.00" shape="978.356331,890.336325 978.297580,884.984736 976.584289,885.003545 976.561422,882.920525 968.551550,882.875487 968.507361,890.444453 978.356331,890.336325"/>
    <poly id="117424984" type="building" color="255,230,230" fill="1" layer="-1.00" shape="1056.434913,902.112027 1059.749719,902.596477 1059.396767,906.124179 1070.053369,908.234594 1068.710235,917.003498 1053.980914,914.937769 1056.434913,902.112027"/>
    <poly id="117424985" type="building" color="255,230,230" fill="1" layer="-1.00" shape="1030.349809,982.338234 1029.856818,990.056180 1017.888704,988.879941 1018.597192,981.170710 1030.349809,982.338234"/>
    <poly id="117424986" type="building" color="255,230,230" fill="1" layer="-1.00" shape="941.849748,870.336608 940.655460,870.360804 940.623282,868.322210 942.316873,868.292532 942.281411,865.954781 945.659047,865.917691 948.909410,865.882000 953.011403,865.825878 953.044616,868.850689 956.187285,868.816183 956.243855,873.968334 941.891481,874.137012 941.849748,870.336608"/>
    <poly id="117424987" type="building" color="255,230,230" fill="1" layer="-1.00" shape="1031.138266,975.669763 1030.555402,982.335978 1018.597192,981.170710 1020.192774,959.722101 1027.552365,960.295125 1027.201165,975.579994 1031.138266,975.669763"/>
    <poly id="117424988" type="building" color="255,230,230" fill="1" layer="-1.00" shape="1017.425473,935.074574 1019.119530,942.225537 1008.142239,944.794968 1007.033458,940.119778 1012.697902,938.794347 1012.112622,936.318575 1017.425473,935.074574"/>
    <poly id="117424990" type="building" color="255,230,230" fill="1" layer="-1.00" shape="976.233130,891.368026 977.115595,895.048388 984.452670,896.242184 984.302780,899.534954 980.031568,899.338056 968.785461,898.829891 969.125425,891.446059 976.233130,891.368026"/>
    <poly id="117424991" type="building" color="255,230,230" fill="1" layer="-1.00" shape="975.730863,866.130498 975.892990,871.979607 978.291113,871.908955 978.352533,873.936146 967.976702,874.216276 967.763060,866.350948 975.730863,866.130498"/>
    <poly id="117424992" type="building" color="255,230,230" fill="1" layer="-1.00" shape="939.615886,910.331143 960.834260,911.261682 960.775380,905.899012 947.605349,905.844160 939.778464,905.520103 939.615886,910.331143"/>
    <poly id="117424995" type="building" color="255,230,230" fill="1" layer="-1.00" shape="1043.947057,850.898638 1043.974289,853.380534 1047.000937,853.480299 1046.793982,858.712909 1039.314229,858.794981 1038.966733,851.219234 1029.506424,851.057095 1029.674214,866.347348 1035.593237,866.803213 1035.624727,869.672906 1046.751063,869.971907 1046.991222,864.195952 1056.575875,864.090792 1056.411636,850.905934 1043.947057,850.898638"/>
    <poly id="117424997" type="building" color="255,230,230" fill="1" layer="-1.00" shape="956.802839,882.073658 957.045129,889.872184 944.663166,890.251931 944.500966,885.289320 949.894168,885.119286 949.804402,882.294558 956.802839,882.073658"/>
    <poly id="117424998" type="building" color="255,230,230" fill="1" layer="-1.00" shape="967.803762,874.517368 968.417100,882.223170 980.765384,882.342474 981.069539,874.371731 967.803762,874.517368"/>
    <poly id="117425000" type="building" color="255,230,230" fill="1" layer="-1.00" shape="1066.613076,893.634035 1065.248725,901.361537 1070.646229,902.476933 1072.139314,894.880995 1066.613076,893.634035"/>
    <poly id="117425002" type="building" color="255,230,230" fill="1" layer="-1.00" shape="939.827843,881.484368 939.747418,874.160556 941.891481,874.137012 956.243855,873.968334 956.324149,881.281065 939.827843,881.484368"/>
    <poly id="117425003" type="building" color="255,230,230" fill="1" layer="-1.00" shape="1024.769845,952.103389 1013.055503,954.426037 1011.926475,948.798083 1018.218339,947.543336 1017.834944,945.619410 1023.257307,944.540428 1024.769845,952.103389"/>
    <poly id="117425005" type="building" color="255,230,230" fill="1" layer="-1.00" shape="957.045129,889.872184 957.386051,897.736115 944.879378,898.349937 944.663166,890.251931 957.045129,889.872184"/>
    <poly id="117425006" type="building" color="255,230,230" fill="1" layer="-1.00" shape="969.925780,911.727006 974.914714,912.193052 974.808644,902.531383 977.840998,903.151885 977.731182,905.635286 980.098954,905.476318 980.031568,899.338056 968.785461,898.829891 969.925780,911.727006"/>