<?xml version="1.0" encoding="UTF-8"?>

<!-- generated on 03/09/20 16:16:24 by Eclipse SUMO netconvert Version 1.5.0
<configuration xmlns:xsi="http://www.w3.org/2001/XMLSchema-instance" xsi:noNamespaceSchemaLocation="http://sumo.dlr.de/xsd/netconvertConfiguration.xsd">

    <input>
        <type-files value="osmNetconvert.typ.xml,osmNetconvertPedestrians.typ.xml"/>
        <osm-files value="anchieta.osm"/>
    </input>

    <output>
        <output-file value="anchieta.net.xml"/>
    </output>

    <projection>
        <proj.utm value="true"/>
    </projection>

    <processing>
        <geometry.remove value="true"/>
        <roundabouts.guess value="true"/>
    </processing>

    <tls_building>
        <tls.discard-simple value="true"/>
        <tls.join value="true"/>
        <tls.guess-signals value="true"/>
    </tls_building>

    <ramp_guessing>
        <ramps.guess value="true"/>
    </ramp_guessing>

    <junctions>
        <no-turnarounds.except-deadend value="true"/>
        <junctions.join value="true"/>
    </junctions>

    <pedestrian>
        <sidewalks.guess value="true"/>
    </pedestrian>

    <formats>
        <osm.all-attributes value="true"/>
    </formats>

    <report>
        <aggregate-warnings value="5"/>
    </report>

</configuration>
-->

<net version="1.3" junctionCornerDetail="5" limitTurnSpeed="5.50" xmlns:xsi="http://www.w3.org/2001/XMLSchema-instance" xsi:noNamespaceSchemaLocation="http://sumo.dlr.de/xsd/net_file.xsd">

    <location netOffset="-369896.65,-3149637.98" convBoundary="0.00,0.00,2124.09,2219.02" origBoundary="-16.329101,28.467015,-16.307346,28.487001" projParameter="+proj=utm +zone=28 +ellps=WGS84 +datum=WGS84 +units=m +no_defs"/>

    <type id="highway.bridleway" priority="1" numLanes="1" speed="2.78" allow="pedestrian" oneway="1" width="2.00"/>
    <type id="highway.bus_guideway" priority="1" numLanes="1" speed="27.78" allow="bus" oneway="1"/>
    <type id="highway.cycleway" priority="1" numLanes="1" speed="8.33" allow="bicycle" oneway="0" width="1.00"/>
    <type id="highway.footway" priority="1" numLanes="1" speed="2.78" allow="pedestrian" oneway="1" width="2.00"/>
    <type id="highway.ford" priority="1" numLanes="1" speed="2.78" allow="army" oneway="0"/>
    <type id="highway.living_street" priority="2" numLanes="1" speed="2.78" disallow="tram rail_urban rail rail_electric rail_fast ship" oneway="0"/>
    <type id="highway.motorway" priority="14" numLanes="2" speed="39.44" allow="private emergency authority army vip passenger hov taxi bus coach delivery truck trailer motorcycle evehicle custom1 custom2" oneway="1"/>
    <type id="highway.motorway_link" priority="9" numLanes="1" speed="22.22" allow="private emergency authority army vip passenger hov taxi bus coach delivery truck trailer motorcycle evehicle custom1 custom2" oneway="1"/>
    <type id="highway.path" priority="1" numLanes="1" speed="2.78" allow="pedestrian bicycle" oneway="1" width="2.00"/>
    <type id="highway.pedestrian" priority="1" numLanes="1" speed="2.78" allow="pedestrian" oneway="1" width="2.00"/>
    <type id="highway.primary" priority="12" numLanes="2" speed="27.78" disallow="pedestrian tram rail_urban rail rail_electric rail_fast ship" oneway="0" sidewalkWidth="3.00"/>
    <type id="highway.primary_link" priority="7" numLanes="1" speed="22.22" disallow="pedestrian tram rail_urban rail rail_electric rail_fast ship" oneway="0" sidewalkWidth="3.00"/>
    <type id="highway.raceway" priority="15" numLanes="2" speed="83.33" allow="vip" oneway="0"/>
    <type id="highway.residential" priority="3" numLanes="1" speed="13.89" disallow="pedestrian tram rail_urban rail rail_electric rail_fast ship" oneway="0" sidewalkWidth="2.00"/>
    <type id="highway.secondary" priority="11" numLanes="1" speed="27.78" disallow="pedestrian tram rail_urban rail rail_electric rail_fast ship" oneway="0" sidewalkWidth="3.00"/>
    <type id="highway.secondary_link" priority="6" numLanes="1" speed="22.22" disallow="pedestrian tram rail_urban rail rail_electric rail_fast ship" oneway="0" sidewalkWidth="3.00"/>
    <type id="highway.service" priority="1" numLanes="1" speed="5.56" allow="pedestrian delivery bicycle" oneway="0"/>
    <type id="highway.stairs" priority="1" numLanes="1" speed="1.39" allow="pedestrian" oneway="1" width="2.00"/>
    <type id="highway.step" priority="1" numLanes="1" speed="1.39" allow="pedestrian" oneway="1" width="2.00"/>
    <type id="highway.steps" priority="1" numLanes="1" speed="1.39" allow="pedestrian" oneway="1" width="2.00"/>
    <type id="highway.tertiary" priority="10" numLanes="1" speed="22.22" disallow="pedestrian tram rail_urban rail rail_electric rail_fast ship" oneway="0" sidewalkWidth="3.00"/>
    <type id="highway.tertiary_link" priority="5" numLanes="1" speed="22.22" disallow="pedestrian tram rail_urban rail rail_electric rail_fast ship" oneway="0" sidewalkWidth="2.00"/>
    <type id="highway.track" priority="1" numLanes="1" speed="5.56" disallow="tram rail_urban rail rail_electric rail_fast ship" oneway="0"/>
    <type id="highway.trunk" priority="13" numLanes="2" speed="27.78" disallow="pedestrian bicycle tram rail_urban rail rail_electric rail_fast ship" oneway="0"/>
    <type id="highway.trunk_link" priority="8" numLanes="1" speed="22.22" disallow="pedestrian bicycle tram rail_urban rail rail_electric rail_fast ship" oneway="0"/>
    <type id="highway.unclassified" priority="4" numLanes="1" speed="13.89" disallow="pedestrian tram rail_urban rail rail_electric rail_fast ship" oneway="0" sidewalkWidth="2.00"/>
    <type id="highway.unsurfaced" priority="1" numLanes="1" speed="8.33" disallow="tram rail_urban rail rail_electric rail_fast ship" oneway="0"/>
    <type id="railway.highspeed" priority="21" numLanes="1" speed="69.44" allow="rail_fast" oneway="1"/>
    <type id="railway.light_rail" priority="19" numLanes="1" speed="27.78" allow="rail_urban" oneway="1"/>
    <type id="railway.preserved" priority="16" numLanes="1" speed="27.78" allow="rail" oneway="1"/>
    <type id="railway.rail" priority="20" numLanes="1" speed="44.44" allow="rail" oneway="1"/>
    <type id="railway.subway" priority="18" numLanes="1" speed="27.78" allow="rail_urban" oneway="1"/>
    <type id="railway.tram" priority="17" numLanes="1" speed="13.89" allow="tram" oneway="1"/>

    <edge id=":1001504521_0" function="internal">
        <lane id=":1001504521_0_0" index="0" disallow="pedestrian tram rail_urban rail rail_electric rail_fast ship" speed="27.78" length="41.14" shape="1318.87,1197.65 1345.81,1166.56"/>
    </edge>
    <edge id=":1001504521_1" function="internal">
        <lane id=":1001504521_1_0" index="0" allow="private emergency authority army vip passenger hov taxi bus coach delivery truck trailer motorcycle evehicle custom1 custom2" speed="25.00" length="39.74" shape="1321.28,1199.75 1347.61,1169.99"/>
    </edge>
    <edge id=":1005902353_0" function="internal">
        <lane id=":1005902353_0_0" index="0" allow="pedestrian delivery bicycle" speed="5.56" length="12.71" shape="780.33,1780.26 780.21,1767.55"/>
    </edge>
    <edge id=":1005902353_1" function="internal">
        <lane id=":1005902353_1_0" index="0" allow="pedestrian delivery bicycle" speed="5.56" length="13.61" shape="780.33,1780.26 780.90,1776.91 782.50,1774.14 784.74,1771.60 787.22,1768.95"/>
    </edge>
    <edge id=":1005902353_2" function="internal">
        <lane id=":1005902353_2_0" index="0" allow="pedestrian delivery bicycle" speed="5.56" length="11.42" shape="789.63,1771.05 787.27,1773.37 785.30,1775.16 783.98,1777.18 783.53,1780.19"/>
    </edge>
    <edge id=":1005902353_3" function="internal">
        <lane id=":1005902353_3_0" index="0" allow="pedestrian delivery bicycle" speed="5.56" length="17.05" shape="789.63,1771.05 785.57,1774.80 782.65,1775.46 780.87,1773.04 780.21,1767.55"/>
    </edge>
    <edge id=":1005902353_4" function="internal">
        <lane id=":1005902353_4_0" index="0" allow="pedestrian delivery bicycle" speed="4.70" length="6.89" shape="783.41,1767.53 783.68,1769.75 784.40,1770.73 785.58,1770.46 787.22,1768.95"/>
    </edge>
    <edge id=":1005902353_5" function="internal">
        <lane id=":1005902353_5_0" index="0" allow="pedestrian delivery bicycle" speed="5.56" length="12.66" shape="783.41,1767.53 783.53,1780.19"/>
    </edge>
    <edge id=":1005902356_0" function="internal">
        <lane id=":1005902356_0_0" index="0" allow="pedestrian delivery bicycle" speed="4.68" length="6.68" shape="795.51,1756.11 795.88,1758.22 796.65,1759.14 797.82,1758.87 799.39,1757.42"/>
    </edge>
    <edge id=":1005902356_1" function="internal">
        <lane id=":1005902356_1_0" index="0" allow="pedestrian delivery bicycle" speed="5.56" length="6.97" shape="795.51,1756.11 796.69,1762.98"/>
    </edge>
    <edge id=":1005902356_2" function="internal">
        <lane id=":1005902356_2_0" index="0" allow="pedestrian delivery bicycle" speed="5.56" length="6.23" shape="794.29,1760.87 795.66,1759.68 796.84,1759.15 798.03,1758.61 799.39,1757.42"/>
    </edge>
    <edge id=":1005902365_0" function="internal">
        <lane id=":1005902365_0_0" index="0" allow="pedestrian delivery bicycle" speed="5.56" length="5.00" shape="780.16,1763.59 780.11,1758.60"/>
    </edge>
    <edge id=":1005902365_1" function="internal">
        <lane id=":1005902365_1_0" index="0" allow="pedestrian delivery bicycle" speed="5.56" length="4.98" shape="783.31,1758.57 783.36,1763.55"/>
    </edge>
    <edge id=":1005902366_0" function="internal">
        <lane id=":1005902366_0_0" index="0" allow="pedestrian delivery bicycle" speed="5.56" length="8.60" shape="808.20,1730.28 806.61,1729.70 804.69,1729.61 802.45,1729.99 799.88,1730.86"/>
    </edge>
    <edge id=":1005902366_1" function="internal">
        <lane id=":1005902366_1_0" index="0" allow="pedestrian delivery bicycle" speed="5.56" length="7.11" shape="808.20,1730.28 806.91,1729.62 804.91,1728.58 803.07,1727.45 802.26,1726.51"/>
    </edge>
    <edge id=":1005902366_2" function="internal">
        <lane id=":1005902366_2_0" index="0" allow="pedestrian delivery bicycle" speed="5.56" length="7.37" shape="805.46,1726.50 805.12,1727.55 804.07,1728.63 802.33,1729.74 799.88,1730.86"/>
    </edge>
    <edge id=":1005902368_0" function="internal">
        <lane id=":1005902368_0_0" index="0" allow="pedestrian delivery bicycle" speed="4.94" length="4.72" shape="780.02,1747.27 779.84,1745.92 779.32,1744.96 778.46,1744.38 777.26,1744.18"/>
    </edge>
    <edge id=":1005902368_1" function="internal">
        <lane id=":1005902368_1_0" index="0" allow="pedestrian delivery bicycle" speed="5.56" length="9.38" shape="780.02,1747.27 780.02,1737.90"/>
    </edge>
    <edge id=":1005902368_2" function="internal">
        <lane id=":1005902368_2_0" index="0" allow="pedestrian delivery bicycle" speed="5.56" length="9.33" shape="783.22,1737.92 783.22,1747.25"/>
    </edge>
    <edge id=":1005902368_3" function="internal">
        <lane id=":1005902368_3_0" index="0" allow="pedestrian delivery bicycle" speed="5.56" length="9.85" shape="783.22,1737.92 782.83,1740.67 781.71,1742.63 779.85,1743.80 777.26,1744.18"/>
    </edge>
    <edge id=":1005902368_4" function="internal">
        <lane id=":1005902368_4_0" index="0" allow="pedestrian delivery bicycle" speed="4.92" length="4.71" shape="777.27,1740.98 778.46,1740.79 779.32,1740.21 779.84,1739.25 780.02,1737.90"/>
    </edge>
    <edge id=":1005902368_5" function="internal">
        <lane id=":1005902368_5_0" index="0" allow="pedestrian delivery bicycle" speed="5.56" length="9.83" shape="777.27,1740.98 779.86,1741.38 781.71,1742.56 782.83,1744.51 783.22,1747.25"/>
    </edge>
    <edge id=":1012196238_0" function="internal">
        <lane id=":1012196238_0_0" index="0" disallow="pedestrian tram rail_urban rail rail_electric rail_fast ship" speed="13.89" length="5.00" shape="1318.34,1741.84 1320.10,1746.53"/>
    </edge>
    <edge id=":1012196280_0" function="internal">
        <lane id=":1012196280_0_0" index="0" disallow="pedestrian tram rail_urban rail rail_electric rail_fast ship" speed="13.89" length="4.98" shape="1324.16,1757.35 1325.95,1762.00"/>
    </edge>
    <edge id=":1012196576_0" function="internal">
        <lane id=":1012196576_0_0" index="0" disallow="pedestrian tram rail_urban rail rail_electric rail_fast ship" speed="13.89" length="5.03" shape="1199.10,1778.05 1197.38,1773.32"/>
    </edge>
    <edge id=":1038292572_0" function="internal">
        <lane id=":1038292572_0_0" index="0" disallow="pedestrian tram rail_urban rail rail_electric rail_fast ship" speed="7.44" length="8.87" shape="851.59,1817.23 850.61,1818.88 850.31,1820.81 850.70,1823.03 851.78,1825.55"/>
    </edge>
    <edge id=":1038292572_1" function="internal">
        <lane id=":1038292572_1_0" index="0" disallow="pedestrian tram rail_urban rail rail_electric rail_fast ship" speed="13.89" length="8.70" shape="851.59,1817.23 845.94,1823.84"/>
    </edge>
    <edge id=":1038292574_0" function="internal">
        <lane id=":1038292574_0_0" index="0" disallow="pedestrian tram rail_urban rail rail_electric rail_fast ship" speed="8.66" length="9.58" shape="856.78,1831.44 859.37,1833.22 861.68,1834.32 863.72,1834.75 865.50,1834.50"/>
    </edge>
    <edge id=":1038292574_1" function="internal">
        <lane id=":1038292574_1_0" index="0" disallow="pedestrian tram rail_urban rail rail_electric rail_fast ship" speed="13.89" length="9.31" shape="856.69,1837.51 865.50,1834.50"/>
    </edge>
    <edge id=":1065961813_0" function="internal">
        <lane id=":1065961813_0_0" index="0" disallow="pedestrian tram rail_urban rail rail_electric rail_fast ship" speed="13.89" length="12.76" shape="1215.79,1294.05 1214.98,1297.75 1214.30,1300.27 1213.22,1302.63 1211.21,1305.81"/>
    </edge>
    <edge id=":1065961813_1" function="internal">
        <lane id=":1065961813_1_0" index="0" disallow="pedestrian tram rail_urban rail rail_electric rail_fast ship" speed="8.39" length="12.26" shape="1209.00,1294.63 1211.15,1297.76 1212.24,1300.66 1212.26,1303.35 1211.21,1305.81"/>
    </edge>
    <edge id=":1065961820_0" function="internal">
        <lane id=":1065961820_0_0" index="0" disallow="pedestrian tram rail_urban rail rail_electric rail_fast ship" speed="27.78" length="13.51" shape="1055.25,1270.45 1054.91,1256.95"/>
    </edge>
    <edge id=":1065961820_1" function="internal">
        <lane id=":1065961820_1_0" index="0" disallow="pedestrian tram rail_urban rail rail_electric rail_fast ship" speed="7.97" length="5.63" shape="1055.25,1270.45 1055.73,1266.68 1056.71,1265.14"/>
    </edge>
    <edge id=":1065961820_6" function="internal">
        <lane id=":1065961820_6_0" index="0" disallow="pedestrian tram rail_urban rail rail_electric rail_fast ship" speed="7.97" length="8.90" shape="1056.71,1265.14 1057.44,1264.01 1060.39,1262.42 1064.56,1261.92"/>
    </edge>
    <edge id=":1065961820_2" function="internal">
        <lane id=":1065961820_2_0" index="0" disallow="pedestrian tram rail_urban rail rail_electric rail_fast ship" speed="6.48" length="9.22" shape="1064.53,1265.12 1061.81,1265.43 1059.88,1266.40 1058.76,1268.04 1058.44,1270.35"/>
    </edge>
    <edge id=":1065961820_3" function="internal">
        <lane id=":1065961820_3_0" index="0" disallow="pedestrian tram rail_urban rail rail_electric rail_fast ship" speed="8.11" length="14.28" shape="1064.53,1265.12 1060.38,1264.58 1057.39,1263.03 1055.57,1260.49 1054.91,1256.95"/>
    </edge>
    <edge id=":1065961820_4" function="internal">
        <lane id=":1065961820_4_0" index="0" disallow="pedestrian tram rail_urban rail rail_electric rail_fast ship" speed="6.64" length="9.24" shape="1058.11,1256.89 1058.55,1259.07 1059.77,1260.63 1061.77,1261.59 1064.56,1261.92"/>
    </edge>
    <edge id=":1065961820_5" function="internal">
        <lane id=":1065961820_5_0" index="0" disallow="pedestrian tram rail_urban rail rail_electric rail_fast ship" speed="27.78" length="13.47" shape="1058.11,1256.89 1058.44,1270.35"/>
    </edge>
    <edge id=":1065961830_0" function="internal">
        <lane id=":1065961830_0_0" index="0" allow="delivery bicycle" speed="6.35" length="7.39" shape="760.40,1305.84 759.80,1304.80 758.50,1304.08 756.52,1303.69 753.84,1303.63"/>
    </edge>
    <edge id=":1065961830_1" function="internal">
        <lane id=":1065961830_1_0" index="0" disallow="pedestrian tram rail_urban rail rail_electric rail_fast ship" speed="13.89" length="9.53" shape="760.40,1305.84 758.36,1296.54"/>
    </edge>
    <edge id=":1065961830_2" function="internal">
        <lane id=":1065961830_2_0" index="0" disallow="pedestrian tram rail_urban rail rail_electric rail_fast ship" speed="13.89" length="9.55" shape="761.49,1295.85 763.53,1305.17"/>
    </edge>
    <edge id=":1065961830_3" function="internal">
        <lane id=":1065961830_3_0" index="0" allow="delivery bicycle" speed="7.23" length="4.91" shape="761.49,1295.85 761.63,1299.13 760.89,1300.58"/>
    </edge>
    <edge id=":1065961830_6" function="internal">
        <lane id=":1065961830_6_0" index="0" allow="delivery bicycle" speed="7.23" length="8.07" shape="760.89,1300.58 760.40,1301.52 757.81,1303.02 753.84,1303.63"/>
    </edge>
    <edge id=":1065961830_4" function="internal">
        <lane id=":1065961830_4_0" index="0" allow="delivery bicycle" speed="5.54" length="7.13" shape="753.73,1300.43 756.06,1300.12 757.62,1299.36 758.38,1298.17 758.36,1296.54"/>
    </edge>
    <edge id=":1065961830_5" function="internal">
        <lane id=":1065961830_5_0" index="0" allow="delivery bicycle" speed="7.87" length="11.84" shape="753.73,1300.43 757.61,1300.61 760.54,1301.46 762.51,1302.98 763.53,1305.17"/>
    </edge>
    <edge id=":1065961835_0" function="internal">
        <lane id=":1065961835_0_0" index="0" allow="pedestrian delivery bicycle" speed="5.56" length="12.08" shape="940.82,1506.92 937.01,1495.45"/>
    </edge>
    <edge id=":1065961835_1" function="internal">
        <lane id=":1065961835_1_0" index="0" allow="pedestrian delivery bicycle" speed="5.56" length="13.81" shape="940.82,1506.92 939.47,1502.03 939.54,1500.12 941.03,1501.19 943.95,1505.24"/>
    </edge>
    <edge id=":1065961837_0" function="internal">
        <lane id=":1065961837_0_0" index="0" allow="pedestrian delivery bicycle" speed="5.56" length="6.14" shape="684.17,1292.64 682.90,1292.96 681.89,1293.80 681.14,1295.17 680.66,1297.06"/>
    </edge>
    <edge id=":1065961837_1" function="internal">
        <lane id=":1065961837_1_0" index="0" allow="pedestrian delivery bicycle" speed="5.56" length="9.68" shape="684.17,1292.64 674.51,1293.37"/>
    </edge>
    <edge id=":1065961837_2" function="internal">
        <lane id=":1065961837_2_0" index="0" allow="pedestrian delivery bicycle" speed="5.56" length="9.87" shape="674.19,1290.19 684.04,1289.44"/>
    </edge>
    <edge id=":1065961837_3" function="internal">
        <lane id=":1065961837_3_0" index="0" allow="pedestrian delivery bicycle" speed="5.56" length="11.57" shape="674.19,1290.19 677.49,1290.32 679.67,1291.52 680.73,1293.76 680.66,1297.06"/>
    </edge>
    <edge id=":1065961837_4" function="internal">
        <lane id=":1065961837_4_0" index="0" allow="pedestrian delivery bicycle" speed="4.81" length="5.35" shape="677.50,1296.55 677.53,1295.02 677.04,1293.98 676.04,1293.43 674.51,1293.37"/>
    </edge>
    <edge id=":1065961837_5" function="internal">
        <lane id=":1065961837_5_0" index="0" allow="pedestrian delivery bicycle" speed="5.56" length="10.55" shape="677.50,1296.55 678.33,1293.52 679.70,1291.33 681.60,1289.97 684.04,1289.44"/>
    </edge>
    <edge id=":1065961841_0" function="internal">
        <lane id=":1065961841_0_0" index="0" disallow="pedestrian tram rail_urban rail rail_electric rail_fast ship" speed="13.89" length="0.53" shape="793.34,1426.37 793.10,1425.90"/>
    </edge>
    <edge id=":1065961841_1" function="internal">
        <lane id=":1065961841_1_0" index="0" disallow="pedestrian tram rail_urban rail rail_electric rail_fast ship" speed="13.89" length="0.28" shape="795.98,1424.52 796.11,1424.77"/>
    </edge>
    <edge id=":1065961842_0" function="internal">
        <lane id=":1065961842_0_0" index="0" disallow="pedestrian tram rail_urban rail rail_electric rail_fast ship" speed="6.53" length="8.97" shape="1108.03,1271.16 1107.66,1268.70 1106.63,1266.94 1104.91,1265.88 1102.52,1265.50"/>
    </edge>
    <edge id=":1065961842_1" function="internal">
        <lane id=":1065961842_1_0" index="0" disallow="pedestrian tram rail_urban rail rail_electric rail_fast ship" speed="7.27" length="11.72" shape="1108.03,1271.16 1108.35,1267.31 1109.39,1264.57 1111.15,1262.94 1113.63,1262.43"/>
    </edge>
    <edge id=":1065961842_2" function="internal">
        <lane id=":1065961842_2_0" index="0" disallow="pedestrian tram rail_urban rail rail_electric rail_fast ship" speed="13.89" length="11.07" shape="1113.59,1265.63 1102.52,1265.50"/>
    </edge>
    <edge id=":1065961842_3" function="internal">
        <lane id=":1065961842_3_0" index="0" disallow="pedestrian tram rail_urban rail rail_electric rail_fast ship" speed="13.89" length="11.08" shape="1102.55,1262.30 1113.63,1262.43"/>
    </edge>
    <edge id=":1065961848_0" function="internal">
        <lane id=":1065961848_0_0" index="0" disallow="pedestrian tram rail_urban rail rail_electric rail_fast ship" speed="6.52" length="8.96" shape="1154.91,1271.81 1154.56,1269.36 1153.53,1267.60 1151.82,1266.53 1149.43,1266.14"/>
    </edge>
    <edge id=":1065961848_1" function="internal">
        <lane id=":1065961848_1_0" index="0" disallow="pedestrian tram rail_urban rail rail_electric rail_fast ship" speed="7.28" length="11.68" shape="1154.91,1271.81 1155.25,1267.97 1156.30,1265.24 1158.05,1263.61 1160.51,1263.08"/>
    </edge>
    <edge id=":1065961848_2" function="internal">
        <lane id=":1065961848_2_0" index="0" disallow="pedestrian tram rail_urban rail rail_electric rail_fast ship" speed="13.89" length="11.05" shape="1160.47,1266.28 1149.43,1266.14"/>
    </edge>
    <edge id=":1065961848_3" function="internal">
        <lane id=":1065961848_3_0" index="0" disallow="pedestrian tram rail_urban rail rail_electric rail_fast ship" speed="13.89" length="11.03" shape="1149.47,1262.94 1160.51,1263.08"/>
    </edge>
    <edge id=":1065961857_0" function="internal">
        <lane id=":1065961857_0_0" index="0" allow="pedestrian delivery bicycle" speed="5.56" length="0.10" shape="899.70,1555.79 899.76,1555.77"/>
    </edge>
    <edge id=":1065961857_1" function="internal">
        <lane id=":1065961857_1_0" index="0" allow="pedestrian delivery bicycle" speed="5.56" length="0.10" shape="898.87,1552.70 898.87,1552.71"/>
    </edge>
    <edge id=":1065961865_0" function="internal">
        <lane id=":1065961865_0_0" index="0" allow="pedestrian delivery bicycle" speed="5.56" length="7.45" shape="979.72,1526.95 979.09,1529.08 978.64,1530.53 978.06,1531.93 977.01,1533.87"/>
    </edge>
    <edge id=":1065961865_1" function="internal">
        <lane id=":1065961865_1_0" index="0" allow="pedestrian delivery bicycle" speed="5.56" length="6.82" shape="975.60,1527.47 976.67,1529.47 977.27,1531.20 977.38,1532.67 977.01,1533.87"/>
    </edge>
    <edge id=":1065961871_0" function="internal">
        <lane id=":1065961871_0_0" index="0" allow="pedestrian delivery bicycle" speed="5.56" length="6.05" shape="932.13,1462.30 933.79,1461.62 934.92,1461.12 936.01,1460.57 937.60,1459.72"/>
    </edge>
    <edge id=":1065961871_1" function="internal">
        <lane id=":1065961871_1_0" index="0" allow="pedestrian delivery bicycle" speed="5.38" length="5.10" shape="932.13,1462.30 933.39,1462.00 934.54,1462.18 935.56,1462.83 936.46,1463.96"/>
    </edge>
    <edge id=":1065961875_0" function="internal">
        <lane id=":1065961875_0_0" index="0" disallow="pedestrian tram rail_urban rail rail_electric rail_fast ship" speed="3.65" length="4.67" shape="1228.47,1263.38 1229.68,1264.17 1230.09,1264.96 1229.70,1265.77 1228.51,1266.58"/>
    </edge>
    <edge id=":1065961876_0" function="internal">
        <lane id=":1065961876_0_0" index="0" allow="pedestrian delivery bicycle" speed="3.65" length="4.67" shape="912.84,1438.99 913.14,1437.58 913.73,1436.91 914.62,1436.98 915.81,1437.80"/>
    </edge>
    <edge id=":1065961880_0" function="internal">
        <lane id=":1065961880_0_0" index="0" disallow="pedestrian tram rail_urban rail rail_electric rail_fast ship" speed="13.89" length="7.06" shape="868.42,1566.61 868.30,1564.53 868.07,1563.11 867.61,1561.74 866.82,1559.80"/>
    </edge>
    <edge id=":1065961880_1" function="internal">
        <lane id=":1065961880_1_0" index="0" allow="delivery bicycle" speed="7.79" length="3.77" shape="868.42,1566.61 868.81,1564.45 869.72,1563.17"/>
    </edge>
    <edge id=":1065961880_6" function="internal">
        <lane id=":1065961880_6_0" index="0" allow="delivery bicycle" speed="7.79" length="6.92" shape="869.72,1563.17 870.14,1562.58 872.40,1561.01 875.59,1559.73"/>
    </edge>
    <edge id=":1065961880_2" function="internal">
        <lane id=":1065961880_2_0" index="0" allow="delivery bicycle" speed="6.23" length="6.53" shape="876.54,1562.79 874.36,1563.60 872.81,1564.49 871.90,1565.46 871.62,1566.51"/>
    </edge>
    <edge id=":1065961880_3" function="internal">
        <lane id=":1065961880_3_0" index="0" allow="delivery bicycle" speed="7.44" length="11.31" shape="876.54,1562.79 873.09,1563.48 870.33,1563.21 868.24,1561.98 866.82,1559.80"/>
    </edge>
    <edge id=":1065961880_4" function="internal">
        <lane id=":1065961880_4_0" index="0" allow="delivery bicycle" speed="5.80" length="6.50" shape="869.79,1558.60 870.55,1559.65 871.76,1560.18 873.45,1560.21 875.59,1559.73"/>
    </edge>
    <edge id=":1065961880_5" function="internal">
        <lane id=":1065961880_5_0" index="0" disallow="pedestrian tram rail_urban rail rail_electric rail_fast ship" speed="13.89" length="8.19" shape="869.79,1558.60 870.70,1560.85 871.22,1562.44 871.49,1564.09 871.62,1566.51"/>
    </edge>
    <edge id=":1065961889_0" function="internal">
        <lane id=":1065961889_0_0" index="0" disallow="pedestrian tram rail_urban rail rail_electric rail_fast ship" speed="12.63" length="13.71" shape="1107.17,1398.15 1109.33,1395.01 1109.78,1392.31 1109.39,1389.30 1109.04,1385.19"/>
    </edge>
    <edge id=":1065961889_1" function="internal">
        <lane id=":1065961889_1_0" index="0" disallow="pedestrian tram rail_urban rail rail_electric rail_fast ship" speed="13.89" length="13.74" shape="1107.17,1398.15 1116.34,1387.92"/>
    </edge>
    <edge id=":1065961891_0" function="internal">
        <lane id=":1065961891_0_0" index="0" disallow="pedestrian tram rail_urban rail rail_electric rail_fast ship" speed="12.90" length="13.75" shape="1153.24,1346.30 1155.38,1343.11 1155.83,1340.41 1155.45,1337.39 1155.12,1333.27"/>
    </edge>
    <edge id=":1065961891_1" function="internal">
        <lane id=":1065961891_1_0" index="0" disallow="pedestrian tram rail_urban rail rail_electric rail_fast ship" speed="13.89" length="13.75" shape="1153.24,1346.30 1162.40,1336.05"/>
    </edge>
    <edge id=":1065961894_0" function="internal">
        <lane id=":1065961894_0_0" index="0" allow="pedestrian delivery bicycle" speed="5.56" length="6.67" shape="970.84,1541.00 969.07,1541.89 967.82,1542.40 966.52,1542.79 964.60,1543.28"/>
    </edge>
    <edge id=":1065961894_1" function="internal">
        <lane id=":1065961894_1_0" index="0" allow="pedestrian delivery bicycle" speed="4.76" length="5.45" shape="966.17,1539.23 966.84,1540.65 966.80,1541.80 966.06,1542.68 964.60,1543.28"/>
    </edge>
    <edge id=":1065961896_0" function="internal">
        <lane id=":1065961896_0_0" index="0" disallow="pedestrian tram rail_urban rail rail_electric rail_fast ship" speed="13.89" length="10.47" shape="1199.18,1295.04 1201.46,1292.90 1203.25,1291.54 1204.66,1289.97 1205.79,1287.21"/>
    </edge>
    <edge id=":1065961896_1" function="internal">
        <lane id=":1065961896_1_0" index="0" disallow="pedestrian tram rail_urban rail rail_electric rail_fast ship" speed="8.72" length="8.64" shape="1199.18,1295.04 1200.40,1294.16 1202.18,1293.61 1204.53,1293.40 1207.45,1293.51"/>
    </edge>
    <edge id=":1065961897_0" function="internal">
        <lane id=":1065961897_0_0" index="0" allow="pedestrian delivery bicycle" speed="5.56" length="6.46" shape="926.21,1468.03 925.29,1466.39 924.33,1465.45 923.36,1464.51 922.43,1462.87"/>
    </edge>
    <edge id=":1065961897_1" function="internal">
        <lane id=":1065961897_1_0" index="0" allow="pedestrian delivery bicycle" speed="5.56" length="6.35" shape="926.21,1468.03 925.99,1466.66 926.45,1465.44 927.60,1464.35 929.44,1463.39"/>
    </edge>
    <edge id=":1065961897_2" function="internal">
        <lane id=":1065961897_2_0" index="0" allow="pedestrian delivery bicycle" speed="5.04" length="5.00" shape="925.40,1461.68 926.09,1462.87 926.99,1463.55 928.11,1463.72 929.44,1463.39"/>
    </edge>
    <edge id=":1065968219_0" function="internal">
        <lane id=":1065968219_0_0" index="0" disallow="pedestrian tram rail_urban rail rail_electric rail_fast ship" speed="3.65" length="4.67" shape="836.73,1988.85 836.13,1990.16 835.41,1990.68 834.55,1990.42 833.57,1989.36"/>
    </edge>
    <edge id=":1132622212_0" function="internal">
        <lane id=":1132622212_0_0" index="0" allow="delivery bicycle" speed="6.65" length="7.80" shape="1069.46,1616.60 1068.71,1615.83 1067.22,1615.42 1065.00,1615.38 1062.06,1615.71"/>
    </edge>
    <edge id=":1132622212_1" function="internal">
        <lane id=":1132622212_1_0" index="0" disallow="pedestrian tram rail_urban rail rail_electric rail_fast ship" speed="27.78" length="6.60" shape="1069.46,1616.60 1066.82,1610.63"/>
        <lane id=":1132622212_1_1" index="1" disallow="pedestrian tram rail_urban rail rail_electric rail_fast ship" speed="27.78" length="6.60" shape="1072.43,1615.41 1069.73,1609.31"/>
    </edge>