<?xml version="1.0" encoding="UTF-8"?>

<!-- generated on 01/21/20 20:09:40 by Eclipse SUMO netconvert Version 1.3.1
<configuration xmlns:xsi="http://www.w3.org/2001/XMLSchema-instance" xsi:noNamespaceSchemaLocation="http://sumo.dlr.de/xsd/netconvertConfiguration.xsd">

    <input>
        <type-files value="osmNetconvert.typ.xml,osmNetconvertUrbanDe.typ.xml,osmNetconvertPedestrians.typ.xml"/>
        <osm-files value="map2.osm"/>
    </input>

    <output>
        <output-file value="anchieta_21012020_v2.net.xml"/>
    </output>

    <projection>
        <proj.utm value="true"/>
    </projection>

    <processing>
        <geometry.remove value="true"/>
        <roundabouts.guess value="true"/>
    </processing>

    <tls_building>
        <tls.discard-simple value="true"/>
        <tls.join value="true"/>
        <tls.guess-signals value="true"/>
    </tls_building>

    <ramp_guessing>
        <ramps.guess value="true"/>
    </ramp_guessing>

    <junctions>
        <junctions.join value="true"/>
    </junctions>

</configuration>
-->

<net version="1.3" junctionCornerDetail="5" limitTurnSpeed="5.50" xmlns:xsi="http://www.w3.org/2001/XMLSchema-instance" xsi:noNamespaceSchemaLocation="http://sumo.dlr.de/xsd/net_file.xsd">

    <location netOffset="-366325.83,-3147983.05" convBoundary="0.00,0.00,7092.93,4140.41" origBoundary="-16.365210,28.451547,-16.292892,28.489239" projParameter="+proj=utm +zone=28 +ellps=WGS84 +datum=WGS84 +units=m +no_defs"/>

    <type id="highway.bridleway" priority="1" numLanes="1" speed="2.78" allow="pedestrian" oneway="1" width="2.00"/>
    <type id="highway.bus_guideway" priority="1" numLanes="1" speed="13.89" allow="bus" oneway="1"/>
    <type id="highway.cycleway" priority="1" numLanes="1" speed="8.33" allow="bicycle" oneway="0" width="1.00"/>
    <type id="highway.footway" priority="1" numLanes="1" speed="2.78" allow="pedestrian" oneway="1" width="2.00"/>
    <type id="highway.ford" priority="1" numLanes="1" speed="2.78" allow="army" oneway="0"/>
    <type id="highway.living_street" priority="2" numLanes="1" speed="2.78" disallow="tram rail_urban rail rail_electric rail_fast ship" oneway="0"/>
    <type id="highway.motorway" priority="14" numLanes="2" speed="27.78" allow="private emergency authority army vip passenger hov taxi bus coach delivery truck trailer motorcycle evehicle custom1 custom2" oneway="1"/>
    <type id="highway.motorway_link" priority="9" numLanes="1" speed="16.67" allow="private emergency authority army vip passenger hov taxi bus coach delivery truck trailer motorcycle evehicle custom1 custom2" oneway="1"/>
    <type id="highway.path" priority="1" numLanes="1" speed="2.78" allow="pedestrian bicycle" oneway="1" width="2.00"/>
    <type id="highway.pedestrian" priority="1" numLanes="1" speed="2.78" allow="pedestrian" oneway="1" width="2.00"/>
    <type id="highway.primary" priority="12" numLanes="2" speed="13.89" disallow="pedestrian tram rail_urban rail rail_electric rail_fast ship" oneway="0" sidewalkWidth="3.00"/>
    <type id="highway.primary_link" priority="7" numLanes="1" speed="13.89" disallow="pedestrian tram rail_urban rail rail_electric rail_fast ship" oneway="0" sidewalkWidth="3.00"/>
    <type id="highway.raceway" priority="15" numLanes="2" speed="83.33" allow="vip" oneway="0"/>
    <type id="highway.residential" priority="3" numLanes="1" speed="13.89" disallow="pedestrian tram rail_urban rail rail_electric rail_fast ship" oneway="0" sidewalkWidth="2.00"/>
    <type id="highway.secondary" priority="11" numLanes="1" speed="13.89" disallow="pedestrian tram rail_urban rail rail_electric rail_fast ship" oneway="0" sidewalkWidth="3.00"/>
    <type id="highway.secondary_link" priority="6" numLanes="1" speed="13.89" disallow="pedestrian tram rail_urban rail rail_electric rail_fast ship" oneway="0" sidewalkWidth="3.00"/>
    <type id="highway.service" priority="1" numLanes="1" speed="5.56" allow="pedestrian delivery bicycle" oneway="0"/>
    <type id="highway.stairs" priority="1" numLanes="1" speed="1.39" allow="pedestrian" oneway="1" width="2.00"/>
    <type id="highway.step" priority="1" numLanes="1" speed="1.39" allow="pedestrian" oneway="1" width="2.00"/>
    <type id="highway.steps" priority="1" numLanes="1" speed="1.39" allow="pedestrian" oneway="1" width="2.00"/>
    <type id="highway.tertiary" priority="10" numLanes="1" speed="13.89" disallow="pedestrian tram rail_urban rail rail_electric rail_fast ship" oneway="0" sidewalkWidth="3.00"/>
    <type id="highway.tertiary_link" priority="5" numLanes="1" speed="13.89" disallow="pedestrian tram rail_urban rail rail_electric rail_fast ship" oneway="0" sidewalkWidth="2.00"/>
    <type id="highway.track" priority="1" numLanes="1" speed="5.56" disallow="tram rail_urban rail rail_electric rail_fast ship" oneway="0"/>
    <type id="highway.trunk" priority="13" numLanes="2" speed="13.89" disallow="pedestrian bicycle tram rail_urban rail rail_electric rail_fast ship" oneway="0"/>
    <type id="highway.trunk_link" priority="8" numLanes="1" speed="13.89" disallow="pedestrian bicycle tram rail_urban rail rail_electric rail_fast ship" oneway="0"/>
    <type id="highway.unclassified" priority="4" numLanes="1" speed="13.89" disallow="pedestrian tram rail_urban rail rail_electric rail_fast ship" oneway="0" sidewalkWidth="2.00"/>
    <type id="highway.unsurfaced" priority="1" numLanes="1" speed="8.33" disallow="tram rail_urban rail rail_electric rail_fast ship" oneway="0"/>
    <type id="railway.highspeed" priority="21" numLanes="1" speed="69.44" allow="rail_fast" oneway="1"/>
    <type id="railway.light_rail" priority="19" numLanes="1" speed="27.78" allow="rail_urban" oneway="1"/>
    <type id="railway.preserved" priority="16" numLanes="1" speed="27.78" allow="rail" oneway="1"/>
    <type id="railway.rail" priority="20" numLanes="1" speed="44.44" allow="rail" oneway="1"/>
    <type id="railway.subway" priority="18" numLanes="1" speed="27.78" allow="rail_urban" oneway="1"/>
    <type id="railway.tram" priority="17" numLanes="1" speed="13.89" allow="tram" oneway="1"/>

    <edge id=":1001504461_0" function="internal">
        <lane id=":1001504461_0_0" index="0" disallow="pedestrian tram rail_urban rail rail_electric rail_fast ship" speed="13.89" length="11.56" shape="4557.45,3700.47 4557.51,3703.87 4557.14,3706.20 4556.63,3708.52 4556.28,3711.93"/>
    </edge>
    <edge id=":1001504461_1" function="internal">
        <lane id=":1001504461_1_0" index="0" disallow="pedestrian tram rail_urban rail rail_electric rail_fast ship" speed="3.65" length="2.46" shape="4557.45,3700.47 4556.75,3701.74 4555.99,3702.21 4555.88,3702.16"/>
    </edge>
    <edge id=":1001504461_4" function="internal">
        <lane id=":1001504461_4_0" index="0" disallow="pedestrian tram rail_urban rail rail_electric rail_fast ship" speed="3.65" length="2.22" shape="4555.88,3702.16 4555.16,3701.88 4554.26,3700.75"/>
    </edge>
    <edge id=":1001504461_2" function="internal">
        <lane id=":1001504461_2_0" index="0" disallow="pedestrian tram rail_urban rail rail_electric rail_fast ship" speed="13.89" length="11.16" shape="4553.08,3711.80 4553.42,3708.51 4553.93,3706.27 4554.31,3704.03 4554.26,3700.75"/>
    </edge>
    <edge id=":1001504461_3" function="internal">
        <lane id=":1001504461_3_0" index="0" disallow="pedestrian tram rail_urban rail rail_electric rail_fast ship" speed="3.65" length="2.44" shape="4553.08,3711.80 4553.93,3710.64 4554.74,3710.27 4554.83,3710.32"/>
    </edge>
    <edge id=":1001504461_5" function="internal">
        <lane id=":1001504461_5_0" index="0" disallow="pedestrian tram rail_urban rail rail_electric rail_fast ship" speed="3.65" length="2.23" shape="4554.83,3710.32 4555.52,3710.70 4556.28,3711.93"/>
    </edge>
    <edge id=":1001504521_0" function="internal">
        <lane id=":1001504521_0_0" index="0" disallow="pedestrian tram rail_urban rail rail_electric rail_fast ship" speed="13.89" length="41.14" shape="4889.69,2852.58 4916.63,2821.49"/>
    </edge>
    <edge id=":1001504521_1" function="internal">
        <lane id=":1001504521_1_0" index="0" allow="private emergency authority army vip passenger hov taxi bus coach delivery truck trailer motorcycle evehicle custom1 custom2" speed="15.28" length="39.74" shape="4892.10,2854.69 4918.43,2824.92"/>
    </edge>
    <edge id=":1005902353_0" function="internal">
        <lane id=":1005902353_0_0" index="0" allow="pedestrian delivery bicycle" speed="5.56" length="12.71" shape="4351.15,3435.19 4351.03,3422.48"/>
    </edge>
    <edge id=":1005902353_1" function="internal">
        <lane id=":1005902353_1_0" index="0" allow="pedestrian delivery bicycle" speed="5.56" length="13.61" shape="4351.15,3435.19 4351.72,3431.85 4353.32,3429.07 4355.56,3426.53 4358.04,3423.88"/>
    </edge>
    <edge id=":1005902353_2" function="internal">
        <lane id=":1005902353_2_0" index="0" allow="pedestrian delivery bicycle" speed="3.65" length="4.67" shape="4351.15,3435.19 4351.93,3433.98 4352.72,3433.56 4353.53,3433.94 4354.35,3435.13"/>
    </edge>
    <edge id=":1005902353_3" function="internal">
        <lane id=":1005902353_3_0" index="0" allow="pedestrian delivery bicycle" speed="5.56" length="11.42" shape="4360.45,3425.99 4358.09,3428.30 4356.13,3430.09 4354.80,3432.12 4354.35,3435.13"/>
    </edge>
    <edge id=":1005902353_4" function="internal">
        <lane id=":1005902353_4_0" index="0" allow="pedestrian delivery bicycle" speed="5.56" length="17.05" shape="4360.45,3425.99 4356.39,3429.73 4353.47,3430.39 4351.69,3427.98 4351.03,3422.48"/>
    </edge>
    <edge id=":1005902353_5" function="internal">
        <lane id=":1005902353_5_0" index="0" allow="pedestrian delivery bicycle" speed="3.65" length="4.67" shape="4360.45,3425.99 4359.06,3426.36 4358.19,3426.14 4357.85,3425.31 4358.04,3423.88"/>
    </edge>
    <edge id=":1005902353_6" function="internal">
        <lane id=":1005902353_6_0" index="0" allow="pedestrian delivery bicycle" speed="4.70" length="6.89" shape="4354.23,3422.46 4354.50,3424.69 4355.22,3425.66 4356.40,3425.39 4358.04,3423.88"/>
    </edge>
    <edge id=":1005902353_7" function="internal">
        <lane id=":1005902353_7_0" index="0" allow="pedestrian delivery bicycle" speed="5.56" length="12.66" shape="4354.23,3422.46 4354.35,3435.13"/>
    </edge>
    <edge id=":1005902353_8" function="internal">
        <lane id=":1005902353_8_0" index="0" allow="pedestrian delivery bicycle" speed="3.65" length="4.67" shape="4354.23,3422.46 4353.44,3423.67 4352.64,3424.07 4351.84,3423.68 4351.03,3422.48"/>
    </edge>
    <edge id=":1005902356_0" function="internal">
        <lane id=":1005902356_0_0" index="0" allow="pedestrian delivery bicycle" speed="4.68" length="6.68" shape="4366.33,3411.04 4366.70,3413.15 4367.47,3414.07 4368.64,3413.80 4370.21,3412.35"/>
    </edge>
    <edge id=":1005902356_1" function="internal">
        <lane id=":1005902356_1_0" index="0" allow="pedestrian delivery bicycle" speed="5.56" length="6.97" shape="4366.33,3411.04 4367.52,3417.91"/>
    </edge>
    <edge id=":1005902356_2" function="internal">
        <lane id=":1005902356_2_0" index="0" allow="pedestrian delivery bicycle" speed="5.56" length="6.23" shape="4365.11,3415.80 4366.48,3414.61 4367.67,3414.08 4368.85,3413.55 4370.21,3412.35"/>
    </edge>
    <edge id=":1005902356_3" function="internal">
        <lane id=":1005902356_3_0" index="0" allow="pedestrian delivery bicycle" speed="3.65" length="4.67" shape="4365.11,3415.80 4366.50,3415.43 4367.37,3415.65 4367.70,3416.48 4367.52,3417.91"/>
    </edge>
    <edge id=":1005902365_0" function="internal">
        <lane id=":1005902365_0_0" index="0" allow="pedestrian delivery bicycle" speed="5.56" length="5.00" shape="4350.98,3418.53 4350.93,3413.53"/>
    </edge>
    <edge id=":1005902365_1" function="internal">
        <lane id=":1005902365_1_0" index="0" allow="pedestrian delivery bicycle" speed="3.65" length="4.67" shape="4350.98,3418.53 4351.77,3417.32 4352.56,3416.91 4353.37,3417.30 4354.18,3418.49"/>
    </edge>
    <edge id=":1005902365_2" function="internal">
        <lane id=":1005902365_2_0" index="0" allow="pedestrian delivery bicycle" speed="5.56" length="4.98" shape="4354.13,3413.51 4354.18,3418.49"/>
    </edge>
    <edge id=":1005902365_3" function="internal">
        <lane id=":1005902365_3_0" index="0" allow="pedestrian delivery bicycle" speed="3.65" length="4.67" shape="4354.13,3413.51 4353.34,3414.71 4352.55,3415.12 4351.74,3414.73 4350.93,3413.53"/>
    </edge>
    <edge id=":1005902366_0" function="internal">
        <lane id=":1005902366_0_0" index="0" allow="pedestrian delivery bicycle" speed="5.56" length="8.60" shape="4379.02,3385.22 4377.43,3384.64 4375.51,3384.54 4373.27,3384.93 4370.70,3385.80"/>
    </edge>
    <edge id=":1005902366_1" function="internal">
        <lane id=":1005902366_1_0" index="0" allow="pedestrian delivery bicycle" speed="5.56" length="7.11" shape="4379.02,3385.22 4377.73,3384.56 4375.73,3383.52 4373.89,3382.38 4373.08,3381.44"/>
    </edge>
    <edge id=":1005902366_2" function="internal">
        <lane id=":1005902366_2_0" index="0" allow="pedestrian delivery bicycle" speed="5.56" length="7.37" shape="4376.28,3381.43 4375.94,3382.49 4374.89,3383.57 4373.15,3384.67 4370.70,3385.80"/>
    </edge>
    <edge id=":1005902366_3" function="internal">
        <lane id=":1005902366_3_0" index="0" allow="pedestrian delivery bicycle" speed="3.65" length="4.67" shape="4376.28,3381.43 4375.49,3382.63 4374.69,3383.03 4373.89,3382.64 4373.08,3381.44"/>
    </edge>
    <edge id=":1005902368_0" function="internal">
        <lane id=":1005902368_0_0" index="0" allow="pedestrian delivery bicycle" speed="4.94" length="4.72" shape="4350.85,3402.20 4350.66,3400.86 4350.14,3399.89 4349.28,3399.31 4348.08,3399.11"/>
    </edge>
    <edge id=":1005902368_1" function="internal">
        <lane id=":1005902368_1_0" index="0" allow="pedestrian delivery bicycle" speed="5.56" length="9.38" shape="4350.85,3402.20 4350.84,3392.83"/>
    </edge>
    <edge id=":1005902368_2" function="internal">
        <lane id=":1005902368_2_0" index="0" allow="pedestrian delivery bicycle" speed="3.65" length="4.67" shape="4350.85,3402.20 4351.64,3401.00 4352.43,3400.59 4353.24,3400.99 4354.05,3402.18"/>
    </edge>
    <edge id=":1005902368_3" function="internal">
        <lane id=":1005902368_3_0" index="0" allow="pedestrian delivery bicycle" speed="5.56" length="9.33" shape="4354.04,3392.85 4354.05,3402.18"/>
    </edge>
    <edge id=":1005902368_4" function="internal">
        <lane id=":1005902368_4_0" index="0" allow="pedestrian delivery bicycle" speed="5.56" length="9.85" shape="4354.04,3392.85 4353.65,3395.60 4352.53,3397.56 4350.67,3398.73 4348.08,3399.11"/>
    </edge>
    <edge id=":1005902368_5" function="internal">
        <lane id=":1005902368_5_0" index="0" allow="pedestrian delivery bicycle" speed="3.65" length="4.67" shape="4354.04,3392.85 4353.23,3394.05 4352.43,3394.44 4351.63,3394.04 4350.84,3392.83"/>
    </edge>
    <edge id=":1005902368_6" function="internal">
        <lane id=":1005902368_6_0" index="0" allow="pedestrian delivery bicycle" speed="4.92" length="4.71" shape="4348.09,3395.91 4349.29,3395.72 4350.14,3395.15 4350.66,3394.18 4350.84,3392.83"/>
    </edge>
    <edge id=":1005902368_7" function="internal">
        <lane id=":1005902368_7_0" index="0" allow="pedestrian delivery bicycle" speed="5.56" length="9.83" shape="4348.09,3395.91 4350.68,3396.31 4352.53,3397.49 4353.65,3399.45 4354.05,3402.18"/>
    </edge>
    <edge id=":1005902368_8" function="internal">
        <lane id=":1005902368_8_0" index="0" allow="pedestrian delivery bicycle" speed="3.65" length="4.67" shape="4348.09,3395.91 4349.29,3396.72 4349.68,3397.52 4349.28,3398.32 4348.08,3399.11"/>
    </edge>
    <edge id=":1012196238_0" function="internal">
        <lane id=":1012196238_0_0" index="0" disallow="pedestrian tram rail_urban rail rail_electric rail_fast ship" speed="13.89" length="5.00" shape="4889.16,3396.78 4890.92,3401.46"/>
    </edge>
    <edge id=":1012196280_0" function="internal">
        <lane id=":1012196280_0_0" index="0" disallow="pedestrian tram rail_urban rail rail_electric rail_fast ship" speed="13.89" length="4.98" shape="4894.98,3412.29 4896.77,3416.93"/>
    </edge>
    <edge id=":1012196576_0" function="internal">
        <lane id=":1012196576_0_0" index="0" disallow="pedestrian tram rail_urban rail rail_electric rail_fast ship" speed="13.89" length="5.03" shape="4769.92,3432.98 4768.20,3428.26"/>
    </edge>
    <edge id=":1038292572_0" function="internal">
        <lane id=":1038292572_0_0" index="0" disallow="pedestrian tram rail_urban rail rail_electric rail_fast ship" speed="7.44" length="8.87" shape="4422.41,3472.16 4421.43,3473.81 4421.13,3475.74 4421.52,3477.97 4422.60,3480.48"/>
    </edge>
    <edge id=":1038292572_1" function="internal">
        <lane id=":1038292572_1_0" index="0" disallow="pedestrian tram rail_urban rail rail_electric rail_fast ship" speed="13.89" length="8.70" shape="4422.41,3472.16 4416.76,3478.77"/>
    </edge>
    <edge id=":1038292574_0" function="internal">
        <lane id=":1038292574_0_0" index="0" disallow="pedestrian tram rail_urban rail rail_electric rail_fast ship" speed="8.66" length="9.58" shape="4427.60,3486.37 4430.19,3488.15 4432.50,3489.25 4434.55,3489.68 4436.32,3489.43"/>
    </edge>
    <edge id=":1038292574_1" function="internal">
        <lane id=":1038292574_1_0" index="0" disallow="pedestrian tram rail_urban rail rail_electric rail_fast ship" speed="13.89" length="9.31" shape="4427.51,3492.44 4436.32,3489.43"/>
    </edge>
    <edge id=":1065961813_0" function="internal">
        <lane id=":1065961813_0_0" index="0" disallow="pedestrian tram rail_urban rail rail_electric rail_fast ship" speed="13.89" length="12.76" shape="4786.62,2948.98 4785.80,2952.68 4785.12,2955.21 4784.04,2957.56 4782.03,2960.75"/>
    </edge>
    <edge id=":1065961813_1" function="internal">
        <lane id=":1065961813_1_0" index="0" disallow="pedestrian tram rail_urban rail rail_electric rail_fast ship" speed="8.39" length="12.26" shape="4779.82,2949.56 4781.97,2952.69 4783.06,2955.60 4783.08,2958.28 4782.03,2960.75"/>
    </edge>
    <edge id=":1065961820_0" function="internal">
        <lane id=":1065961820_0_0" index="0" disallow="pedestrian tram rail_urban rail rail_electric rail_fast ship" speed="13.89" length="13.51" shape="4626.07,2925.38 4625.73,2911.88"/>
    </edge>
    <edge id=":1065961820_1" function="internal">
        <lane id=":1065961820_1_0" index="0" disallow="pedestrian tram rail_urban rail rail_electric rail_fast ship" speed="7.97" length="5.63" shape="4626.07,2925.38 4626.55,2921.62 4627.53,2920.08"/>
    </edge>
    <edge id=":1065961820_2" function="internal">
        <lane id=":1065961820_2_0" index="0" disallow="pedestrian tram rail_urban rail rail_electric rail_fast ship" speed="3.65" length="2.34" shape="4626.07,2925.38 4626.83,2924.16 4627.62,2923.74"/>
    </edge>
    <edge id=":1065961820_9" function="internal">
        <lane id=":1065961820_9_0" index="0" disallow="pedestrian tram rail_urban rail rail_electric rail_fast ship" speed="7.97" length="8.90" shape="4627.53,2920.08 4628.26,2918.94 4631.21,2917.35 4635.38,2916.86"/>
    </edge>
    <edge id=":1065961820_10" function="internal">
        <lane id=":1065961820_10_0" index="0" disallow="pedestrian tram rail_urban rail rail_electric rail_fast ship" speed="3.65" length="2.34" shape="4627.62,2923.74 4628.43,2924.11 4629.27,2925.28"/>
    </edge>
    <edge id=":1065961820_3" function="internal">
        <lane id=":1065961820_3_0" index="0" disallow="pedestrian tram rail_urban rail rail_electric rail_fast ship" speed="6.48" length="9.22" shape="4635.35,2920.06 4632.63,2920.36 4630.70,2921.33 4629.58,2922.97 4629.27,2925.28"/>
    </edge>
    <edge id=":1065961820_4" function="internal">
        <lane id=":1065961820_4_0" index="0" disallow="pedestrian tram rail_urban rail rail_electric rail_fast ship" speed="8.11" length="14.28" shape="4635.35,2920.06 4631.20,2919.51 4628.21,2917.97 4626.39,2915.42 4625.73,2911.88"/>
    </edge>
    <edge id=":1065961820_5" function="internal">
        <lane id=":1065961820_5_0" index="0" disallow="pedestrian tram rail_urban rail rail_electric rail_fast ship" speed="3.65" length="4.67" shape="4635.35,2920.06 4634.16,2919.24 4633.77,2918.44 4634.18,2917.64 4635.38,2916.86"/>
    </edge>
    <edge id=":1065961820_6" function="internal">
        <lane id=":1065961820_6_0" index="0" disallow="pedestrian tram rail_urban rail rail_electric rail_fast ship" speed="6.64" length="9.24" shape="4628.93,2911.82 4629.37,2914.00 4630.59,2915.57 4632.59,2916.52 4635.38,2916.86"/>
    </edge>
    <edge id=":1065961820_7" function="internal">
        <lane id=":1065961820_7_0" index="0" disallow="pedestrian tram rail_urban rail rail_electric rail_fast ship" speed="13.89" length="13.47" shape="4628.93,2911.82 4629.27,2925.28"/>
    </edge>
    <edge id=":1065961820_8" function="internal">
        <lane id=":1065961820_8_0" index="0" disallow="pedestrian tram rail_urban rail rail_electric rail_fast ship" speed="3.65" length="2.34" shape="4628.93,2911.82 4628.15,2913.04 4627.36,2913.45"/>
    </edge>
    <edge id=":1065961820_11" function="internal">
        <lane id=":1065961820_11_0" index="0" disallow="pedestrian tram rail_urban rail rail_electric rail_fast ship" speed="3.65" length="2.34" shape="4627.36,2913.45 4626.55,2913.07 4625.73,2911.88"/>
    </edge>
    <edge id=":1065961830_0" function="internal">
        <lane id=":1065961830_0_0" index="0" allow="pedestrian delivery bicycle" speed="5.71" length="5.81" shape="4331.30,2961.13 4330.79,2959.92 4329.85,2959.08 4328.49,2958.60 4326.70,2958.49"/>
    </edge>
    <edge id=":1065961830_1" function="internal">
        <lane id=":1065961830_1_0" index="0" disallow="pedestrian tram rail_urban rail rail_electric rail_fast ship" speed="13.89" length="9.52" shape="4331.30,2961.13 4329.26,2951.83"/>
    </edge>
    <edge id=":1065961830_2" function="internal">
        <lane id=":1065961830_2_0" index="0" disallow="pedestrian tram rail_urban rail rail_electric rail_fast ship" speed="3.65" length="2.34" shape="4331.30,2961.13 4331.83,2959.79 4332.53,2959.23"/>
    </edge>
    <edge id=":1065961830_9" function="internal">
        <lane id=":1065961830_9_0" index="0" disallow="pedestrian tram rail_urban rail rail_electric rail_fast ship" speed="3.65" length="2.34" shape="4332.53,2959.23 4333.39,2959.45 4334.43,2960.45"/>
    </edge>
    <edge id=":1065961830_3" function="internal">
        <lane id=":1065961830_3_0" index="0" disallow="pedestrian tram rail_urban rail rail_electric rail_fast ship" speed="13.89" length="9.53" shape="4332.39,2951.14 4334.43,2960.45"/>
    </edge>
    <edge id=":1065961830_4" function="internal">
        <lane id=":1065961830_4_0" index="0" allow="pedestrian delivery bicycle" speed="6.74" length="5.24" shape="4332.39,2951.14 4332.62,2954.26 4331.87,2956.23"/>
    </edge>
    <edge id=":1065961830_5" function="internal">
        <lane id=":1065961830_5_0" index="0" disallow="pedestrian tram rail_urban rail rail_electric rail_fast ship" speed="3.65" length="2.34" shape="4332.39,2951.14 4331.87,2952.49 4331.17,2953.05"/>
    </edge>
    <edge id=":1065961830_10" function="internal">
        <lane id=":1065961830_10_0" index="0" allow="pedestrian delivery bicycle" speed="6.74" length="5.87" shape="4331.87,2956.23 4331.75,2956.53 4329.78,2957.94 4326.70,2958.49"/>
    </edge>
    <edge id=":1065961830_11" function="internal">
        <lane id=":1065961830_11_0" index="0" disallow="pedestrian tram rail_urban rail rail_electric rail_fast ship" speed="3.65" length="2.34" shape="4331.17,2953.05 4330.30,2952.83 4329.26,2951.83"/>
    </edge>
    <edge id=":1065961830_6" function="internal">
        <lane id=":1065961830_6_0" index="0" disallow="pedestrian tram rail_urban rail rail_electric rail_fast ship" speed="4.87" length="5.23" shape="4326.58,2955.29 4328.03,2955.03 4328.96,2954.37 4329.37,2953.30 4329.26,2951.83"/>
    </edge>
    <edge id=":1065961830_7" function="internal">
        <lane id=":1065961830_7_0" index="0" disallow="pedestrian tram rail_urban rail rail_electric rail_fast ship" speed="7.39" length="10.32" shape="4326.58,2955.29 4329.58,2955.53 4331.89,2956.47 4333.50,2958.11 4334.43,2960.45"/>
    </edge>
    <edge id=":1065961830_8" function="internal">
        <lane id=":1065961830_8_0" index="0" allow="pedestrian delivery bicycle" speed="3.65" length="4.67" shape="4326.58,2955.29 4327.81,2956.05 4328.24,2956.84 4327.87,2957.65 4326.70,2958.49"/>
    </edge>
    <edge id=":1065961835_0" function="internal">
        <lane id=":1065961835_0_0" index="0" allow="pedestrian delivery bicycle" speed="5.56" length="12.08" shape="4511.64,3161.85 4507.83,3150.38"/>
    </edge>
    <edge id=":1065961835_1" function="internal">
        <lane id=":1065961835_1_0" index="0" allow="pedestrian delivery bicycle" speed="5.56" length="13.81" shape="4511.64,3161.85 4510.29,3156.96 4510.36,3155.05 4511.86,3156.12 4514.77,3160.17"/>
    </edge>
    <edge id=":1065961837_0" function="internal">
        <lane id=":1065961837_0_0" index="0" allow="pedestrian delivery bicycle" speed="5.56" length="6.14" shape="4254.99,2947.57 4253.72,2947.89 4252.71,2948.74 4251.96,2950.10 4251.48,2952.00"/>
    </edge>
    <edge id=":1065961837_1" function="internal">
        <lane id=":1065961837_1_0" index="0" allow="pedestrian delivery bicycle" speed="5.56" length="9.68" shape="4254.99,2947.57 4245.33,2948.30"/>
    </edge>
    <edge id=":1065961837_2" function="internal">
        <lane id=":1065961837_2_0" index="0" allow="pedestrian delivery bicycle" speed="3.65" length="4.67" shape="4254.99,2947.57 4253.76,2946.82 4253.32,2946.04 4253.69,2945.22 4254.86,2944.37"/>
    </edge>
    <edge id=":1065961837_3" function="internal">
        <lane id=":1065961837_3_0" index="0" allow="pedestrian delivery bicycle" speed="5.56" length="9.87" shape="4245.01,2945.12 4254.86,2944.37"/>
    </edge>
    <edge id=":1065961837_4" function="internal">
        <lane id=":1065961837_4_0" index="0" allow="pedestrian delivery bicycle" speed="5.56" length="11.57" shape="4245.01,2945.12 4248.31,2945.26 4250.49,2946.45 4251.55,2948.70 4251.48,2952.00"/>
    </edge>
    <edge id=":1065961837_5" function="internal">
        <lane id=":1065961837_5_0" index="0" allow="pedestrian delivery bicycle" speed="3.65" length="4.67" shape="4245.01,2945.12 4246.29,2945.79 4246.76,2946.55 4246.45,2947.39 4245.33,2948.30"/>
    </edge>
    <edge id=":1065961837_6" function="internal">
        <lane id=":1065961837_6_0" index="0" allow="pedestrian delivery bicycle" speed="4.81" length="5.35" shape="4248.32,2951.48 4248.35,2949.96 4247.86,2948.92 4246.86,2948.37 4245.33,2948.30"/>
    </edge>
    <edge id=":1065961837_7" function="internal">
        <lane id=":1065961837_7_0" index="0" allow="pedestrian delivery bicycle" speed="5.56" length="10.55" shape="4248.32,2951.48 4249.15,2948.46 4250.52,2946.26 4252.42,2944.90 4254.86,2944.37"/>
    </edge>
    <edge id=":1065961837_8" function="internal">
        <lane id=":1065961837_8_0" index="0" allow="pedestrian delivery bicycle" speed="3.65" length="4.67" shape="4248.32,2951.48 4249.31,2950.43 4250.16,2950.16 4250.89,2950.68 4251.48,2952.00"/>
    </edge>
    <edge id=":1065961841_0" function="internal">
        <lane id=":1065961841_0_0" index="0" disallow="pedestrian tram rail_urban rail rail_electric rail_fast ship" speed="13.89" length="2.78" shape="4364.74,3082.29 4363.44,3079.84"/>
    </edge>
    <edge id=":1065961841_1" function="internal">
        <lane id=":1065961841_1_0" index="0" disallow="pedestrian tram rail_urban rail rail_electric rail_fast ship" speed="13.89" length="2.53" shape="4366.32,3078.46 4367.51,3080.69"/>
    </edge>
    <edge id=":1065961842_0" function="internal">
        <lane id=":1065961842_0_0" index="0" disallow="pedestrian tram rail_urban rail rail_electric rail_fast ship" speed="6.53" length="8.97" shape="4678.85,2926.09 4678.49,2923.64 4677.45,2921.88 4675.73,2920.81 4673.34,2920.44"/>
    </edge>
    <edge id=":1065961842_1" function="internal">
        <lane id=":1065961842_1_0" index="0" disallow="pedestrian tram rail_urban rail rail_electric rail_fast ship" speed="7.27" length="11.72" shape="4678.85,2926.09 4679.17,2922.24 4680.21,2919.51 4681.97,2917.88 4684.45,2917.36"/>
    </edge>
    <edge id=":1065961842_2" function="internal">
        <lane id=":1065961842_2_0" index="0" disallow="pedestrian tram rail_urban rail rail_electric rail_fast ship" speed="13.89" length="11.07" shape="4684.41,2920.56 4673.34,2920.44"/>
    </edge>
    <edge id=":1065961842_3" function="internal">
        <lane id=":1065961842_3_0" index="0" disallow="pedestrian tram rail_urban rail rail_electric rail_fast ship" speed="3.65" length="2.34" shape="4684.41,2920.56 4683.22,2919.75 4682.83,2918.94"/>
    </edge>
    <edge id=":1065961842_6" function="internal">
        <lane id=":1065961842_6_0" index="0" disallow="pedestrian tram rail_urban rail rail_electric rail_fast ship" speed="3.65" length="2.34" shape="4682.83,2918.94 4683.24,2918.15 4684.45,2917.36"/>
    </edge>
    <edge id=":1065961842_4" function="internal">
        <lane id=":1065961842_4_0" index="0" disallow="pedestrian tram rail_urban rail rail_electric rail_fast ship" speed="13.89" length="11.08" shape="4673.37,2917.24 4684.45,2917.36"/>
    </edge>
    <edge id=":1065961842_5" function="internal">
        <lane id=":1065961842_5_0" index="0" disallow="pedestrian tram rail_urban rail rail_electric rail_fast ship" speed="3.65" length="2.34" shape="4673.37,2917.24 4674.56,2918.05 4674.96,2918.85"/>
    </edge>
    <edge id=":1065961842_7" function="internal">