<?xml version="1.0" encoding="UTF-8"?>

<!-- generated on 01/21/20 21:35:48 by Eclipse SUMO duarouter Version 1.3.1
<configuration xmlns:xsi="http://www.w3.org/2001/XMLSchema-instance" xsi:noNamespaceSchemaLocation="http://sumo.dlr.de/xsd/duarouterConfiguration.xsd">

    <input>
        <net-file value="anchieta_21012020_v2.net.xml"/>
        <route-files value="trips.trips.xml"/>
    </input>

    <output>
        <output-file value="viajes_aleatorios.rou.xml"/>
        <alternatives-output value="viajes_aleatorios.rou.alt.xml"/>
    </output>

    <time>
        <begin value="0"/>
        <end value="3600"/>
    </time>

    <report>
        <no-warnings value="true"/>
        <ignore-errors value="true"/>
        <no-step-log value="true"/>
    </report>

</configuration>
-->

<routes xmlns:xsi="http://www.w3.org/2001/XMLSchema-instance" xsi:noNamespaceSchemaLocation="http://sumo.dlr.de/xsd/routes_file.xsd">
    <vehicle id="0" depart="0.00">
        <route edges="-36542709 -36356470#2 -36356470#0 -142470433#4 -142470433#3 -142470433#2 -142470433#1 -142470433#0 142470429 218745680 217691393#0 217691393#1 216243708#1 28490061#0 28490061#1 362102906#1 362102906#2 362102906#3 220626583 25567788#0 25567788#1 25567788#2 197453875#0 197453875#1 197453875#2 197453875#3 217365463 220346967 220519648 220346966#0 220346966#1 759746398#0 -200890619#2 200890619#2"/>
    </vehicle>
    <vehicle id="1" depart="1.00">
        <route edges="83819551 363089745#0 363089745#1 363089745#2 361052607#1 -361052608#0 -563003429#2 -563003429#1 -563003431 759746402#1 -105752957 105752957 195392178 759746409 -195391561#0 -155280390 -109573927#4 -109573927#3 -109573927#2 -109573927#1 109572701#0 109572701#2 109572701#3 109572701#4 109572376 361612238 25590757 361926113 25590718 -200890619#2 -200890619#1 -200890619#0 25574493#0"/>
    </vehicle>
    <vehicle id="2" depart="2.00">
        <route edges="-36732105#0 36732106 -142470433#3 -142470433#2 -142470433#1 -142470433#0 142470429 218745680 217691393#0 217691393#1 216243708#1 28490061#0 28490061#1 362102906#1 362102906#2 362102906#3 220626583 25567788#0 25567788#1 25567788#2 25567861#0 25818169 91734500 25567839#1 -197455454#0"/>
    </vehicle>
    <vehicle id="3" depart="3.00">
        <route edges="-452075120#0 -358043014#1 358043014#1 452075120#0 452075120#1 358043015#1 358043015#3 362090922#0 362090922#1"/>
    </vehicle>
    <vehicle id="5" depart="5.00">
        <route edges="641043791 220519642#1 220512024#0 220512024#1 220512024#2 25817924#0 25817924#1 27040910 362767778#1 220512020#1 358043017#0 109573927#0 109573927#2 109573927#3 109573927#4 155280390 195391561#0 759746401 -195392178 195392178"/>
    </vehicle>
    <vehicle id="6" depart="6.00">
        <route edges="28707345#0 28707346 28707351 62073577#2 62073577#3 216657564#1 28370573#0 28370573#1 28370573#2 216257189 217483528 217365467#0 217365467#1 217365467#2 216257190 745156630 62073558#0 62073558#1 216657574 216941948 62073441"/>
    </vehicle>
    <vehicle id="8" depart="8.00">
        <route edges="43651932#1 28469746#2 28469746#3 28469800#0 220626582#4 220626580#0 220626580#1 200295596 217483531#0 217483531#1 217483529 220346972 154608818 220346968 742717937 24208972#1 154607608 220626581#0 220626581#1 217365459 217365460#0 217365460#1 217365460#2 154607611 154607613#0 154607613#1 216268744 142470445 218891289 359349701 550301038 129810486 142470433#0 142470433#1 142470433#2 91731866#0 91731866#1 91731866#2 91731878#0 91731878#1 91731878#2 91731885"/>
    </vehicle>
    <vehicle id="9" depart="9.00">
        <route edges="217365469#1 217365469#2 208988854 -197453875#3 -197453875#2 -197453875#1 -197453875#0 -25567788#2 -25567788#1 -25567788#0 25567794#0 25567794#2 217365459 217365460#0 217365460#1 217365460#2 154607611 154607613#0 154607613#1 216268744 142470461 -91731879 -217365458#2 -217365458#1 -217365458#0 -358043015#1"/>
    </vehicle>
    <vehicle id="10" depart="10.00">
        <route edges="-362095468#1 -362095468#0 -362090922#2 -362090922#1 -362090922#0 217365458#1 217365458#2 91731879 142470465 218891289 359349701 550301038 218742503 218745680 217691393#0 217691393#1 216243708#1 28490061#0 28490061#1 362102906#1 362102906#2 85788470#0 85788470#1 85788470#2 85788470#3 85788470#4 217483530#1 200295595 200295596 25886034#0 25886034#1"/>
    </vehicle>
    <vehicle id="11" depart="11.00">
        <route edges="-28707363 28707363 28707364 28707360 28707361#0 28707361#1 28707361#2 28707362#1 -28707352 28707347 759746407#0 100829405 62073577#1 62073577#2 62073577#3 216657564#1 28370573#0 28370573#1 28370573#2 216257189 28370575 -28490064#6 -28490064#5 -28490064#4 -28490064#3 -28490064#2 -28490064#0 362102906#1 362102906#2 362102906#3 220626583 25567788#0 25567788#1 25567788#2 25567861#0 25818169 91734500 25567839#1 197455454#1 197455454#2 25567843#4"/>
    </vehicle>
    <vehicle id="13" depart="13.00">
        <route edges="-197455454#1 -197455454#0 197455452#1 -25575019 53024206#1 -197453875#2 -197453875#1 -197453875#0 -25567788#2 -25567788#1 -25567788#0 25567794#0 25567794#2 217365459 217365460#0 25567763#0 25567763#1"/>
    </vehicle>
    <vehicle id="14" depart="14.00">
        <route edges="91734500 477531152#3 -25575019 53024206#1 -197453875#2 -197453875#1 -197453875#0 -25567788#2 -25567788#1 -25567788#0 25567794#0 25567794#2 217365459 28490064#0 28490064#2 28490064#3 28490064#4 28490064#5 28490064#6 24610649 217365467#0 217365467#1 217365467#2 216257190 745156630 216657564#0 216657564#1 28370573#0 28370573#1 28370573#2 216257189 28370575 111629673 220626580#0 28469785#0 28469785#1 43651942#0 43651931 28469746#3"/>
    </vehicle>
    <vehicle id="15" depart="15.00">
        <route edges="36356470#3 -36356470#3 -36356470#2 -36356470#0 -142470433#4 -142470433#3 -142470433#2 -142470433#1 -142470433#0 142470429 218745680 217691393#0 217691393#1 216243708#1 28490061#0 28490061#1 362102906#1 362102906#2 85788470#0 85788470#1 85788470#2 85788470#3 85788470#4 217483530#1 200295595"/>
    </vehicle>
    <vehicle id="17" depart="17.00">
        <route edges="62073531#0 62073531#1 62073531#2 549073290 220346972 154608818 220346968 742717937 24208972#1 154607608 220626581#0 220626581#1 217365459 217365460#0 217365460#1"/>
    </vehicle>
    <vehicle id="18" depart="18.00">
        <route edges="36732026 36732106 -142470433#3 -142470433#2 -142470433#1 -142470433#0 142470429 218745680 217691393#0 217691393#1 216243708#1 220346965 154607611 28306819#0 28306819#1 215803177 217912067 215803108 215803108-AddedOffRampEdge 100594719"/>
    </vehicle>
    <vehicle id="19" depart="19.00">
        <route edges="-191105687#1 191105682#0 191105682#1 -200295593 28469785#3 220626582#1 220626582#2 220626582#3 220626582#4 220626580#0 220626580#1 200295596 217483531#0 217483531#1 217483529 220346972 154608818 220346968 742717937 24208972#1 154607608 220626581#0 220626581#1 217365459 217365460#0 217365460#1 217365460#2 154607611 154607613#0 154607613#1 216268744 142470445 218891289 359349701 550301038 218742503 218745680 217691393#0 217691393#1 216243708#1"/>
    </vehicle>
    <vehicle id="20" depart="20.00">
        <route edges="-359346222#1 -359346222#0 -362090923#1 -362090923#0 -362095468#2 -362095468#1 -362095468#0 -362090922#2 -362090922#1 -362090922#0 217365458#1 217365458#2 91731879 142470465 218891289 359349701 550301038 129810486 142470433#0 142470433#1 142470433#2 142470433#3 142470433#4 36356470#0 -36745179 -36732105#1 36356470#7 36356470#8"/>
    </vehicle>
    <vehicle id="21" depart="21.00">
        <route edges="28469746#1 28469746#2 28469746#3 28469800#0 220626582#4 220626580#0 220626580#1 200295596 217483531#0 217483531#1 217483529 220346972 154608818 220346968 742717937 24208972#1 154607608 220626583 25567794#0 28490065"/>
    </vehicle>
    <vehicle id="22" depart="22.00">
        <route edges="-36732105#0 36732106 -142470433#3 -142470433#2 -142470433#1 -142470433#0 142470429 218745680 217691393#0 217691393#1 216243708#1 220346965 154607611 154607613#0 154607613#1 216268744 142470461 -91731879 -217365458#2 -217365458#1 -217365458#0 -358043015#1 -358043015#0 -452075120#0 -358043014#1 -358043014#0 -358043017#1 -220512020#1"/>
    </vehicle>
    <vehicle id="23" depart="23.00">
        <route edges="43651925#2 43651925#3 43651925#4 220626582#2 220626582#3 220626582#4 220626580#0 220626580#1 200295596 217483531#0 217483531#1 217483529 220346972 154608818 220346968 742717937 24208972#1 154607608 220626581#0 220626581#1 217365459 217365460#0 217365460#1 217365460#2 154607611 154607613#0 154607613#1 216268744 142470445 218891289 359349701 550301038 218742503 218745680 91731873#0 91731873#1 449288818#0 449288818#1 100829413 62073582"/>
    </vehicle>
    <vehicle id="24" depart="24.00">
        <route edges="27040910 362767778#1 220512020#1 358043017#0 142470420 358043014#1 452075120#0 452075120#1 358043015#1 358043015#3 217365458#1 217365458#2 91731879 142470465 218891289 359349701 550301038 129810486 142470433#0 142470433#1 142470433#2 142470433#3 142470433#4 36356470#0 36356470#2 36542709"/>
    </vehicle>
    <vehicle id="25" depart="25.00">
        <route edges="-197453875#0 25567861#0 25567861#1 25567861#2 25885711#0 25885711#1 25885711#2 220346957 220346961#0 24208761#0 24208761#1 745150471#0 745150471#1 142575324#0"/>
    </vehicle>
    <vehicle id="26" depart="26.00">
        <route edges="25817873#2 25817873#3 363270418#6 220512021#0 220512021#2 220512021#3 220512021#4 25590718 217365469#1 217365469#2 208988854 -197453875#3 -197453875#2 -197453875#1 -197453875#0 -25567788#2 -25567788#1 -25567788#0 25567794#0 25567794#2 217365459 362102906#1 362102906#2 85788470#0 85788470#1 85788470#2 85788470#3 85788470#4 217483530#1 200295595 200295596 25886034#0 25886034#1 25886034#2 78552561 217483518#0 217483518#1 217483518#2 43651940#0"/>
    </vehicle>
    <vehicle id="27" depart="27.00">
        <route edges="-363270418#3 363270418#3 363270418#5 363270418#6 220512021#0 220512021#2 220512021#3 220512021#4 25590718 217365469#1 217365469#2 25574652 220346967 220519648 25574669 26491951#0 26491951#1 25567839#1 197455454#1 197455454#2 25567843#4"/>
    </vehicle>
    <vehicle id="28" depart="28.00">
        <route edges="62073481#1 62073481#2 43651925#1 220626584#1 220626584#2 220626584#3 217483500#0 217483500#1 217483500#2 216257189 28370575 -28490064#6 -28490064#5 -28490064#4 -28490064#3 -28490064#2 -28490064#0 362102906#1 362102906#2 362102906#3 220626583 25567788#0 25567788#1 25567788#2 197453875#0 197453875#1 197453875#2 197453875#3 217365463 220346967 220519648 220346966#0 220346966#1 759746398#0 -25819076#0 -220512021#4 -220512021#3 -220512021#2 -220512021#0 -363270418#6 -363270418#5"/>
    </vehicle>
    <vehicle id="29" depart="29.00">
        <route edges="-109573927#4 -109573927#3 -109573927#2 -109573927#1 109572701#0 109572701#2 109572701#3 109572701#4 109572376 361612238 25590757 83819544 -220512021#3 -220512021#2 -220512021#0 645897008#0 645897008#1 25817837 220512024#0 25817873#0 25817873#1 25817873#2 25817873#3"/>
    </vehicle>
    <vehicle id="31" depart="31.00">
        <route edges="62073481#1 62073481#2 43651925#1 43651925#2 43651925#3 43651925#4 220626582#2 220626582#3 220626582#4 220626580#0 28469785#0 28469785#1 43651942#0 43651942#1 43651932#0 -43651932#0"/>
    </vehicle>
    <vehicle id="32" depart="32.00">
        <route edges="220346972 154608818 220346968 742717937 24208972#1 154607608 220626583 25567788#0 25567788#1 25567788#2 197453875#0 197453875#1 197453875#2 197453875#3 217365463 220346967 220519648 25574669 26491941#0"/>
    </vehicle>
    <vehicle id="33" depart="33.00">
        <route edges="563003429#0 -563003431 759746402#1 -105752957 105752957 195392178 195392179#2 -109573928#0"/>
    </vehicle>
    <vehicle id="34" depart="34.00">
        <route edges="27040910 362767778#1 -220512020#0 25574558 363270418#0 363270418#1 363270418#2 363270418#3 363270418#5 363270418#6 645897008#0 645897008#1 25817841#0 25817841#1 25817827"/>
    </vehicle>
    <vehicle id="35" depart="35.00">
        <route edges="62073452 43651925#3 43651925#4 220626582#2 220626582#3 220626582#4 220626580#0 220626580#1 200295596 217483531#0 217483531#1 217483529 220346972 154608818 220346968 742717937 24208972#1 154607608 220626581#0 220626581#1 217365459 217365460#0 217365460#1 217365460#2 154607611 154607613#0 154607613#1 216268744 142470461 142470465"/>
    </vehicle>
    <vehicle id="36" depart="36.00">
        <route edges="24208833#6 -745150469 745150467 62073531#2 549073290 220346972 154608818 220346968 742717937 24208972#1 154607608 220626583 25567788#0 25567788#1 25567788#2 197453875#0 197453875#1 197453875#2 197453875#3 217365463 220346967 220519648 220346966#0 220346966#1 759746398#0 -25819076#0 -220512021#4 -220512021#3 -220512021#2 -220512021#0 -363270418#6 -363270418#5 -363270418#3 -363270418#2 -363270418#1 25817953 220512024#6"/>
    </vehicle>
    <vehicle id="37" depart="37.00">
        <route edges="43651930 28469785#3 220626582#1 220626582#2 220626582#3 220626582#4 220626580#0 220626580#1 200295596 217483531#0 217483531#1 217483529 220346972 154608818 220346968 742717937 24208972#1 154607608 220626583 25567788#0 25567788#1 25567788#2 25567861#0 25818169 91734500 25567839#1 25567839#2"/>
    </vehicle>
    <vehicle id="38" depart="38.00">
        <route edges="83819551 363089745#0 363089745#1 363089745#2 361052607#1 -361052608#0 -563003429#2 -563003429#1 -563003431 759746402#1 -105752957 105752957 195392178 195392179#2 109573928#1 105752949 550301038 218742503 218745680 217691393#0 217691393#1 216243708#1 28490061#0 28490061#1 362102906#1 362102906#2 85788470#0 85788470#1 85788470#2 85788470#3 85788470#4 217483530#1 200295595 200295596 25886034#0 25886034#1 25886034#2 78552561 43650461#0 43650461#1 175208309#1 83059448#0 83059448#1 198143285 43650457"/>
    </vehicle>
    <vehicle id="39" depart="39.00">
        <route edges="62073536 217159012#0 217159012#1 216657574 449289363 62073503#0 62073503#1 216650898#1 28306817 216650885 215803174#0 216243708#1 220346965 154607611 154607613#0 154607613#1 216268744 142470461 -91731879 -217365458#2 -217365458#1 -217365458#0 -358043015#1 -358043015#0 -452075120#0 -358043014#1 -358043014#0 109572701#0 109572701#2 109572701#3 109572701#4 109572376 361612238 25590757 83819544 -220512021#3"/>
    </vehicle>
    <vehicle id="40" depart="40.00">
        <route edges="154608816#1 154608818 220346968 62073531#0 62073531#1 62073531#2 24610746 217483530#0 217483530#1 111629674#0 111629674#1 24610649 217365467#0 217365467#1 217365467#2 216257190 745156630 216657564#0 216657564#1 28370573#0 28370573#1 28370573#2 216257189 28370575"/>
    </vehicle>
    <vehicle id="41" depart="41.00">
        <route edges="142470433#3 -142470433#3 -142470433#2 -142470433#1 -142470433#0 142470429 218745680 217691393#0 217691393#1 216243708#1 28490061#0 28490061#1 362102906#1 362102906#2 85788470#0 85788470#1 85788470#2 85788470#3 24209032#1"/>
    </vehicle>
    <vehicle id="42" depart="42.00">
        <route edges="24209032#2 24209032#3 24610910#1 111629674#1 24610649 217365467#0 217365467#1 217365467#2 216257190 745156630 62073558#0 62073558#1 216657574 449289363 62073503#0 62073503#1 216650898#1 28306817 216650885 215803174#0 216243708#1 220346965 154607611 154607613#0 154607613#1 216268744 142470461 -91731879 -217365458#2 -217365458#1 362090922#0 362090922#1 -362090922#1"/>
    </vehicle>
    <vehicle id="43" depart="43.00">
        <route edges="217365458#1 217365458#2 91731879 142470465 218891289 359349701 550301038 218742503 218745680 217691393#0 217691393#1 159229344#0 159229344#1 142470423#0 142470423#1 142470423#2 142470423#3 142470423#4 142470423#5 745155172 745156630 216657564#0 216657564#1 28370573#0 28370573#1 28370573#2 216257189 28370575 111629673 220626580#0 28469785#0 28469785#1 28469785#2 200295593"/>
    </vehicle>
    <vehicle id="44" depart="44.00">
        <route edges="-24208915#2 -24208915#1 -24208915#0 362102906#2 362102906#3 220626583 25567794#0 25567794#2 217365459 217365460#0 217365460#1 217365460#2 154607611 154607613#0 154607613#1 216268744 142470445 218891289 359349701 550301038 129810486 142470433#0 142470433#1 142470433#2 142470433#3 142470433#4"/>
    </vehicle>
    <vehicle id="45" depart="45.00">
        <route edges="109749534 43651925#4 220626582#2 220626582#3 220626582#4 220626580#0 220626580#1 200295596 217483531#0 217483531#1 217483529 220346972 154608818 220346968 742717937 24208972#1 154607608 220626581#0 220626581#1 217365459 217365460#0 217365460#1 217365460#2 154607611 154607613#0 154607613#1 216268744 142470445 218891289 359349701 550301038 129810486 142470433#0 142470433#1 142470433#2 142470433#3 -142470433#3"/>
    </vehicle>
    <vehicle id="47" depart="47.00">
        <route edges="217483530#0 217483530#1 111629674#0 111629674#1 24610649 217365467#0 217365467#1 217365467#2 216257190 745156630 62073558#0 62073558#1 216657574 216941948 62073441 -62073486 25750813#0 -36356470#10 -36356470#9 -36356470#8 -36356470#7 -36356470#6 -36356470#5 -36356470#4"/>
    </vehicle>
    <vehicle id="49" depart="49.00">
        <route edges="25750813#0 -25750813#0 215077545 62073539 217159012#0 62073577#0 62073577#1 62073577#2 62073577#3 216657564#1 28370573#0 28370573#1 28370573#2 216257189 28370575 111629673 220626580#0 28469785#0 28469785#1 43651942#0 43651942#1 43651942#2 -109749511#1 -109749511#0 109749511#0"/>
    </vehicle>
    <vehicle id="51" depart="51.00">
        <route edges="91731878#2 91731885 -91731866#1 -91731866#0 -142470433#2 -142470433#1 -142470433#0 142470429 218745680 217691393#0 217691393#1 216243708#1 220346965 154607611 154607613#0 154607613#1 216268744 142470445 218891289 105752955 -109573928#1 -109573928#0 759746409 -195391561#0 -155280390"/>
    </vehicle>
    <vehicle id="52" depart="52.00">
        <route edges="-25574558 220512020#0 220512020#1 358043017#0 109572701#0 109572701#2 109572701#3 109572701#4 109572376 361612238 25590757 83819544 -220512021#3 -220512021#2 -220512021#0 645897008#0 645897008#1 25817841#0 25817841#1 25817827 645897007 645897006 645815452 641043793 217912180 216243701-AddedOnRampEdge 216243701 216243701-AddedOffRampEdge 100594724 27528360"/>
    </vehicle>
    <vehicle id="53" depart="53.00">
        <route edges="24208761#6 28490064#2 28490064#3 24208833#0 24208833#1"/>
    </vehicle>
    <vehicle id="54" depart="54.00">
        <route edges="-362090922#0 217365458#1 217365458#2 91731879 142470465 218891289 359349701 550301038 218742503 218745680 217691393#0 217691393#1 216243708#1 28490061#0 28490061#1 362102906#1 362102906#2 85788470#0 85788470#1 85788470#2 85788470#3 85788470#4 217483530#1 200295595 200295596 217483531#0 217483531#1"/>
    </vehicle>
    <vehicle id="55" depart="55.00">
        <route edges="217483518#1 217483518#2 28469746#0 28469746#1 28469746#2 28469746#3 28469800#0 220626582#4 220626580#0 220626580#1 200295596 217483531#0 217483531#1 217483529 220346972 154608818 220346968 742717937 24208972#1 154607608 220626583 25567788#0 25567788#1 25567788#2 197453875#0 197453875#1 197453875#2 197453875#3 217365463 220346967 220519648 220346966#0 220346966#1 759746398#0 -25819076#0 -220512021#4 -220512021#3 -220512021#2 -220512021#0 645897008#0 645897008#1 25817841#0 25817841#1 25817827 645897007 641043794 217336085"/>
    </vehicle>
    <vehicle id="56" depart="56.00">
        <route edges="563003429#0 -563003431 759746402#1 -105752957 105752957 195392178 195392179#2 109573928#1 105752949 550301038 218742503 218745680 217691393#0 217691393#1 216243708#1 28490061#0 28490061#1 362102906#1 362102906#2 362102906#3 220346956#0 220346956#1 220346957 220346961#0"/>
    </vehicle>
    <vehicle id="57" depart="57.00">
        <route edges="25817940 220512024#4 25817948 363270418#2 363270418#3 363270418#5 363270418#6 220512021#0 220512021#2 220512021#3 220512021#4 25590718 -200890619#2 -200890619#1 -200890619#0 200890619#0"/>
    </vehicle>
    <vehicle id="58" depart="58.00">
        <route edges="62073566 28707348 759746407#0 100829405 62073577#1 62073577#2 62073577#3 216657564#1 28370573#0 28370573#1 28370573#2 216257189 28370575 -28490064#6 -28490064#5 -28490064#4 -28490064#3 -28490064#2 -28490064#0 362102906#1 362102906#2 362102906#3 220626583 25567788#0 25567788#1 25567788#2 197453875#0 197453875#1 197453875#2 197453875#3 217365463 220346967 220519648 220346966#0 220346966#1 759746398#0 -25819076#0 -220512021#4 -220512021#3 -220512021#2 -220512021#0 -363270418#6 -363270418#5 -363270418#3 -363270418#2 -363270418#1 25817953 220512024#6"/>
    </vehicle>
    <vehicle id="59" depart="59.00">
        <route edges="218891289 359349701 550301038 218742503 218745680 217691393#0 217691393#1 216243708#1 220346965 154607611 154607613#0 154607613#1 216268744 142470461 -91731879 -217365458#2"/>
    </vehicle>
    <vehicle id="60" depart="60.00">
        <route edges="216657564#1 28370573#0 28370573#1 28370573#2 216257189 28370575 111629673 220626580#0 28469785#0 28469785#1 43651942#0 43651942#1 43651942#2 -191105682#0 191105687#1 -191105687#1"/>
    </vehicle>
    <vehicle id="61" depart="61.00">
        <route edges="216650885 215803174#0 216243708#1 28490061#0 28490061#1 362102906#1 362102906#2 362102906#3 220626583 25567788#0 25567788#1 25567788#2 25567861#0 25818169 91734500 25567839#1 197455454#1 -197455454#1"/>
    </vehicle>
    <vehicle id="62" depart="62.00">
        <route edges="197453875#0 -197453875#0 25567861#0 25567861#1 25567861#2 25885711#0 25885711#1 25885711#2 220512022#0 220512022#1 154607608 220626581#0"/>
    </vehicle>
    <vehicle id="63" depart="63.00">
        <route edges="449289363 62073503#0 62073503#1 216650898#1 28306817 216650885 215803174#0 216243708#1 28490061#0 28490061#1 362102906#1 362102906#2 85788470#0 85788470#1 85788470#2 85788470#3 85788470#4 217483530#1 200295595 200295596 25886034#0 745152221"/>
    </vehicle>
    <vehicle id="64" depart="64.00">
        <route edges="25818135 197455452#0 197455452#1 -25575019 53024206#1 -197453875#2 -197453875#1 -197453875#0 -25567788#2 -25567788#1 -25567788#0 25567794#0 25567794#2 217365459 362102906#1 362102906#2 85788470#0 85788470#1 85788470#2 85788470#3 24209032#1 -24208915#2"/>
    </vehicle>
    <vehicle id="65" depart="65.00">
        <route edges="220626583 25567788#0 25567788#1 25567788#2 197453875#0 197453875#1 197453875#2 197453875#3 217365463 220346967 220519648 220346966#0 220346966#1 759746398#0 -25819076#0 -220512021#4 -220512021#3 -220512021#2 -220512021#0 645897008#0 645897008#1 25817837 220512024#0 25817873#0 25817873#1 25817873#2 25817873#3"/>
    </vehicle>
    <vehicle id="66" depart="66.00">
        <route edges="28707363 28707364 28707360 28707361#0 28707361#1 28707361#2 28707362#1 -28707352 28707347 759746407#0 100829405 62073577#1 62073577#2 62073577#3 216657564#1 28370573#0 28370573#1 28370573#2 216257189 217483528 217365467#0 217365467#1 217365467#2 216257190 745156630 62073558#0 62073558#1 216657574 449289363 62073503#0 62073503#1 216650898#1 28306817 216650885 215803174#0 216243708#1 220346965 154607611 154607613#0 154607613#1 216268744 142470461 -91731879 -217365458#2 -217365458#1 -217365458#0 -358043015#1 -358043015#0 -452075120#0 -358043014#1 -358043014#0 109572701#0 109572701#2"/>
    </vehicle>
    <vehicle id="69" depart="69.00">
        <route edges="220346961#0 24208761#0 24208972#1 154607608 220626581#0 220626581#1 217365459 217365460#0 217365460#1 217365460#2 154607611 154607613#0 154607613#1 216268744 142470445 218891289 359349701 550301038 218742503 218745680 217691393#0 217691393#1 216243708#1"/>
    </vehicle>
    <vehicle id="70" depart="70.00">
        <route edges="361052607#1 -361052608#0 -563003429#2 -563003429#1 -563003431 759746402#1 -105752957 105752957 195392178 195392179#2 109573928#1 105752949 550301038 218742503 218745680 91731873#0 91731873#1 449288818#0 449288818#1 100829413 62073582 25750813#0 -36356470#10 36356470#10"/>
    </vehicle>
    <vehicle id="71" depart="71.00">
        <route edges="361612238 25590757 361926113 25590718 217365469#1 217365469#2 208988854 -197453875#3 -197453875#2 -197453875#1 -197453875#0 -25567788#2 -25567788#1 -25567788#0 25567794#0 25567794#2 217365459 28490064#0 28490064#2 28490064#3 28490064#4 28490064#5 28490064#6 24610649 217365467#0 217365467#1 217365467#2 216257190 745156630 62073558#0 62073558#1 216657574 449289363 62073503#0"/>
    </vehicle>
    <vehicle id="72" depart="72.00">
        <route edges="-36745180 36745179 -36356470#0 -142470433#4 -142470433#3 -142470433#2 -142470433#1 -142470433#0 142470429 218745680 217691393#0 217691393#1 216243708#1 220346965 154607611 154607613#0 154607613#1 216268744 142470461 -91731879 -217365458#2 -217365458#1 362090922#0 362090922#1 362090922#2"/>
    </vehicle>
    <vehicle id="73" depart="73.00">
        <route edges="217483500#2 216257189 28370575 -28490064#6 -28490064#5 -28490064#4 -28490064#3 -28490064#2 -28490064#0 362102906#1 362102906#2 362102906#3 220626583 25567788#0 25567788#1 25567788#2 197453875#0 197453875#1 197453875#2 197453875#3 217365463 220346967 220519648 220346966#0 220346966#1 759746398#0 -25819076#0 -220512021#4 -220512021#3 -220512021#2 -220512021#0 645897008#0 645897008#1 25817837 220512024#0 25817873#0 25817873#1 25817873#2"/>
    </vehicle>
    <vehicle id="74" depart="74.00">
        <route edges="24610649 217365467#0 217365467#1 217365467#2 216257190 745156630 62073558#0 62073558#1 216657574 449289363 62073503#0 62073503#1 216650898#1 28306817 216650885 215803174#0 216243708#1 220346965 154607611 154607613#0 154607613#1 216268744 142470445 218891289 359349701 550301038 129810486 142470433#0 142470433#1 142470433#2 91731866#0 91731866#1 -91731866#1"/>
    </vehicle>
    <vehicle id="75" depart="75.00">
        <route edges="28707352 -28707352 28707347 759746407#0 100829405 62073577#1 62073577#2 62073577#3 216657564#1 28370573#0 28370573#1 28370573#2 216257189 28370575 -28490064#6 -28490064#5 -28490064#4 -28490064#3 -28490064#2 -28490064#0 362102906#1 362102906#2 362102906#3 220626583 25567788#0 25567788#1 25567788#2 25567861#0 25818169 91734500 25567839#1 197455454#1 25567897#1 25567897#2 25567897#3 477531152#2"/>
    </vehicle>
    <vehicle id="77" depart="77.00">
        <route edges="-36356470#5 -36356470#4 -36356470#3 -36356470#2 -36356470#0 -142470433#4 -142470433#3 -142470433#2 -142470433#1 -142470433#0 142470429 218745680 217691393#0 217691393#1 216243708#1 28490061#0 28490061#1 362102906#1 362102906#2 362102906#3 220346956#0 220346956#1 220346957 220346961#0 24208761#0"/>
    </vehicle>
    <vehicle id="78" depart="78.00">
        <route edges="43651942#0 43651931 28469746#3 28469800#0 28469800#1 217483500#1 217483500#2 216257189 217483528 217365467#0 217365467#1 217365467#2 216257190 745156630 62073558#0 62073558#1 216657574 216941948 62073441 -62073486 25750813#0 -36356470#10 -36356470#9 -36745180 -36732105#1 36356470#7"/>
    </vehicle>
    <vehicle id="79" depart="79.00">
        <route edges="-36356470#4 -36356470#3 -36356470#2 -36356470#0 -142470433#4 -142470433#3 -142470433#2 -142470433#1 -142470433#0 142470429 218745680 217691393#0 217691393#1 216243708#1 220346965 154607611 154607613#0 154607613#1 216268744 142470445 218891289 105752955 -109573928#1 -109573928#0 759746409 759746401 759746402#0 563003430 563003429#1 563003429#2 27041344"/>
    </vehicle>
    <vehicle id="80" depart="80.00">
        <route edges="220626582#4 220626580#0 220626580#1 200295596 217483531#0 217483531#1 217483529 220346972 154608818 220346968 742717937 24208972#1 154607608 220626583 25567788#0 25567788#1 25567788#2 25567861#0 25567861#1 25567861#2 25567861#3"/>
    </vehicle>
    <vehicle id="81" depart="81.00">
        <route edges="91731878#1 91731878#2 91731885"/>
    </vehicle>
    <vehicle id="82" depart="82.00">
        <route edges="449288818#0 449288818#1 100829413 62073582 215077545 62073539 217159012#0 217159012#1 216657574 449289363 62073503#0 62073503#1 216650898#1 28306817 216650885 215803174#0 216243708#1 28490061#0 28490061#1 362102906#1 362102906#2 362102906#3 220626583 25567836#0 25567836#1 25567836#2 -25567836#2"/>
    </vehicle>
    <vehicle id="83" depart="83.00">
        <route edges="25567836#3 -25567836#3 -25567836#2 -25567836#1 25818212#0 25818212#1 25818169 91734500 25567839#1 -197455454#0 197455452#1"/>
    </vehicle>
    <vehicle id="84" depart="84.00">
        <route edges="-25574750 25574750 197455452#1 220519646#1 220519646#2 220519648 220346966#0 220346966#1 759746398#0 -25819076#0 -220512021#4 -220512021#3 83819510 759746391 361590597 -109572376 27040909#1 362767778#1 -363089744 155280391 363089745#0 363089745#1 363089745#2 361052607#1 -361052608#0 -563003429#2"/>
    </vehicle>
    <vehicle id="85" depart="85.00">
        <route edges="-36356470#10 36356470#10 -25750813#0 215077545 62073539 217159012#0 62073577#0 62073577#1 62073577#2 62073577#3 216657564#1 28370573#0 28370573#1 28370573#2 216257189 28370575 111629673 220626580#0 220626580#1 200295596 25886034#0 25886034#1 25886034#2 78552561 217483518#0 217483518#1 217483518#2 28469746#0"/>
    </vehicle>
    <vehicle id="87" depart="87.00">
        <route edges="220626584#1 220626584#2 220626584#3 217483500#0 217483500#1 217483500#2 216257189 28370575 111629673 220626580#0 28469785#0 28469785#1 43651942#0 43651931"/>
    </vehicle>
    <vehicle id="88" depart="88.00">
        <route edges="217336085 645815452 641043796#0 641043796#1 645897009 220519642#0 220519642#1 220512024#0 25817873#0 25817873#1 25817873#2 25817873#3 363270418#6 220512021#0 220512021#2 220512021#3 220512021#4 25590718 217365469#1 217365469#2 25574652 220346967 220519648 220346966#0 220346966#1"/>
    </vehicle>
    <vehicle id="89" depart="89.00">