<additional>
  <inductionLoop id="campus_guajara_creciente_lento" lane="216650879_0" pos="0" freq="1" file="output/campus_guajara_creciente_lento.xml"/>
  <inductionLoop id="campus_guajara_creciente_medio_lento" lane="216650879_1" pos="0" freq="1" file="output/campus_guajara_creciente_medio_lento.xml"/>
  <inductionLoop id="campus_guajara_creciente_medio_rapido" lane="216650879_2" pos="0" freq="1" file="output/campus_guajara_creciente_medio_rapido.xml"/>
  <inductionLoop id="campus_guajara_creciente_rapido" lane="216650879_3" pos="0" freq="1" file="output/campus_guajara_creciente_rapido.xml"/>
  <inductionLoop id="campus_guajara_decreciente_lento" lane="217553754_0" pos="-1" freq="1" file="output/campus_guajara_decreciente_lento.xml"/>
  <inductionLoop id="campus_guajara_decreciente_medio" lane="217553754_1" pos="-1" freq="1" file="output/campus_guajara_decreciente_medio.xml"/>
  <inductionLoop id="campus_guajara_decreciente_rapido" lane="217553754_2" pos="-1" freq="1" file="output/campus_guajara_decreciente_rapido.xml"/>
  <inductionLoop id="padre_anchieta_creciente_lento" lane="101005127.945_0" pos="0" freq="1" file="output/padre_anchieta_creciente_lento.xml"/>
  <inductionLoop id="padre_anchieta_creciente_medio" lane="101005127.945_1" pos="0" freq="1" file="output/padre_anchieta_creciente_medio.xml"/>
  <inductionLoop id="padre_anchieta_creciente_rapido" lane="101005127.945_2" pos="0" freq="1" file="output/padre_anchieta_creciente_rapido.xml"/>
  <inductionLoop id="padre_anchieta_decreciente_lento" lane="216243700_0" pos="-1" freq="1" file="output/padre_anchieta_decreciente_lento.xml"/>
  <inductionLoop id="padre_anchieta_decreciente_medio" lane="216243700_1" pos="-1" freq="1" file="output/padre_anchieta_decreciente_medio.xml"/>
  <inductionLoop id="padre_anchieta_decreciente_rapido" lane="216243700_2" pos="-1" freq="1" file="output/padre_anchieta_decreciente_rapido.xml"/>
</additional>