<routes>
    <route id="-142470433#4_101005127.945.qPKW" edges="-142470433#4 -142470433#3 -142470433#2 142470460#0 142470460#1 449288818#0 449288818#1 100829413 62073582 215077545 62073539 217159012#0 217159012#1 216657574 449289363 62073503 775363912 101005127.341 101005127.417 101005127.504 101005127.945"/>
    <route id="109573928#1_101005127.945.qPKW" edges="109573928#1 550301038 218745680 91731873#1 449288818#0 449288818#1 100829413 62073582 215077545 62073539 217159012#0 217159012#1 216657574 449289363 62073503 775363912 101005127.341 101005127.417 101005127.504 101005127.945"/>
    <route id="216243700_217553754.qPKW" edges="216243700 216243700.351 217691379-AddedOnRampEdge 217691379 216657562 216657562-AddedOffRampEdge 217553754"/>
    <route id="216650879_101005127.945.qPKW" edges="216650879 101005127.269 101005127.341 101005127.417 101005127.504 101005127.945"/>
    <route id="216650879_217553754.qPKW" edges="216650879 101005127.269 101005127.341 101005127.417 775381929 28306817 215803174#0 215803157 216243708#1 220346965 154607611 154607613#0 154607613#1 216268744 142470445 218891289 550301038 218745680 91731873#1 449288818#0 449288818#1 100829406 217691379-AddedOnRampEdge 217691379 216657562 216657562-AddedOffRampEdge 217553754"/>
    <route id="216650879_101005127.945.1.qPKW" edges="216650879 101005127.269 101005127.341 101005127.417 775381929 28306817 215803174#0 215803157 216243708#1 220346965 154607611 154607613#0 154607613#1 216268744 142470445 218891289 550301038 218745680 91731873#1 449288818#0 449288818#1 100829413 62073582 215077545 62073539 217159012#0 217159012#1 216657574 449289363 62073503 775363912 101005127.341 101005127.417 101005127.504 101005127.945"/>
    <route id="216650879_28490061#1.qPKW" edges="216650879 101005127.269 101005127.341 101005127.417 775381929 28306817 215803174#0 215803157 216243708#1 28490061#1"/>
    <route id="217365460#0_217553754.qPKW" edges="217365460#0 217365460#1 217365460#2 154607611 154607613#0 154607613#1 216268744 142470445 218891289 550301038 218745680 91731873#1 449288818#0 449288818#1 100829406 217691379-AddedOnRampEdge 217691379 216657562 216657562-AddedOffRampEdge 217553754"/>
    <route id="217365460#0_-217365458#0.qPKW" edges="217365460#0 217365460#1 217365460#2 154607611 154607613#0 154607613#1 216268744 142470461 -217365458#2 -217365458#1 -217365458#0"/>
    <route id="358043015#3_-109573928#1.8.qPKW" edges="358043015#3 217365458#1 217365458#2 142470465 218891289 -109573928#1.8"/>
</routes>
