<additional>
    <flow id="-142470433#4_217553754.qPKW" departSpeed="max" departPos="last" departLane="best" route="-142470433#4_217553754.qPKW" number="354" begin="0" end="3600"/>
    <flow id="109573928#1_217553754.qPKW" departSpeed="max" departPos="last" departLane="best" route="109573928#1_217553754.qPKW" number="416" begin="0" end="3600"/>
    <flow id="216243701_759746395.qPKW" departSpeed="max" departPos="last" departLane="best" route="216243701_759746395.qPKW" number="3492" begin="0" end="3600"/>
    <flow id="216650879_215803108.qPKW" departSpeed="max" departPos="last" departLane="best" route="216650879_215803108.qPKW" number="3948" begin="0" end="3600"/>
    <flow id="217365460#0_215803108.qPKW" departSpeed="max" departPos="last" departLane="best" route="217365460#0_215803108.qPKW" number="820" begin="0" end="3600"/>
    <flow id="358043015#3_217553754.qPKW" departSpeed="max" departPos="last" departLane="best" route="358043015#3_217553754.qPKW" number="320" begin="0" end="3600"/>
    <flow id="80925648_217553754.qPKW" departSpeed="max" departPos="last" departLane="best" route="80925648_217553754.qPKW" number="3026" begin="0" end="3600"/>
    <flow id="80925648_215803108.qPKW" departSpeed="max" departPos="last" departLane="best" route="80925648_215803108.qPKW" number="320" begin="0" end="3600"/>
</additional>
