<routes xmlns:xsi="http://www.w3.org/2001/XMLSchema-instance" xsi:noNamespaceSchemaLocation="http://sumo.dlr.de/xsd/routes_file.xsd">
    <person id="16" depart="16.00">
        <walk edges="217365460#0 28490061#2 28490061#1 775381932 154607611 154607613#0 154607613#1 216268744 142470461 142470465 218891289 550301038" />
    </person>
    <person id="22" depart="22.00">
        <walk edges="-217365458#0 358043015#3 217365458#1 217365458#2 142470461 216268744 154607613#1 154607613#0 154607611 775381932 216243708#1 -159229344#0 -142470423#0" />
    </person>
    <person id="37" depart="37.00">
        <walk edges="28490061#2 28490061#1 775381932 154607611 154607613#0 154607613#1" />
    </person>
    <person id="51" depart="51.00">
        <walk edges="142470460#1 142470460#0 -142470433#2 -142470433#3 -142470433#4 142470433#4 142470433#3 142470433#2 142470433#1 550301038" />
    </person>
    <person id="52" depart="52.00">
        <walk edges="-142470423#0 -159229344#0 216243708#1 28490061#1 28490061#2 217365460#0 25567763#0" />
    </person>
    <person id="55" depart="55.00">
        <walk edges="28490061#2 28490061#1 775381932 154607611 154607613#0 154607613#1 216268744 142470461 142470465 218891289 550301038 142470433#1 142470433#2 142470433#3" />
    </person>
    <person id="67" depart="67.00">
        <walk edges="-142470433#4 142470433#4 142470433#3 142470433#2 142470433#1" />
    </person>
    <person id="69" depart="69.00">
        <walk edges="217365460#1 217365460#2 154607611 154607613#0 154607613#1 216268744 142470461 142470465 218891289" />
    </person>
    <person id="72" depart="72.00">
        <walk edges="28490061#1 775381932 154607611 154607613#0 154607613#1 216268744 142470461 142470465 218891289 550301038 142470433#1 142470433#2 142470433#3 142470433#4 -142470433#4 -142470433#3 -142470433#2" />
    </person>
    <person id="82" depart="82.00">
        <walk edges="-142470433#3 -142470433#4 142470433#4 142470433#3 142470433#2 142470433#1 550301038 218891289 142470465 142470461 216268744 154607613#1 154607613#0 154607611 775381932 28490061#1 28490061#2 217365460#0 25567763#0" />
    </person>
    <person id="92" depart="92.00">
        <walk edges="549548862#1 -142470423#0 -159229344#0 159229344#0 159229344#0.2 -216268747" />
    </person>
    <person id="97" depart="97.00">
        <walk edges="142470461 216268744 154607613#1 154607613#0 154607611 775381932 28490061#1 28490061#2 217365460#0 25567763#0" />
    </person>
    <person id="99" depart="99.00">
        <walk edges="28490061#1 28490061#2 217365460#0" />
    </person>
    <person id="102" depart="102.00">
        <walk edges="-159229344#0 216243708#1 775381932 154607611 154607613#0 154607613#1 216268744 142470461 217365458#2 217365458#1 358043015#3" />
    </person>
    <person id="103" depart="103.00">
        <walk edges="-142470433#1 550301038 218891289 142470465 217365458#2 217365458#1 358043015#3 -217365458#0 -217365458#1 -217365458#2" />
    </person>
    <person id="121" depart="121.00">
        <walk edges="-217365458#1 -217365458#0 358043015#3 217365458#1 217365458#2 142470465 218891289 -109573928#1.8 109573928#1" />
    </person>
    <person id="131" depart="131.00">
        <walk edges="217691393#1 215803157 216243708#1 775381932 154607611 154607613#0 154607613#1 216268744 142470461 142470465 218891289 550301038 142470433#1 142470433#2 142470433#3 142470433#4 -142470433#4" />
    </person>
    <person id="142" depart="142.00">
        <walk edges="216268747 159229344#0.2 159229344#0 216243708#1 775381932 154607611 154607613#0 154607613#1 216268744 142470461 142470465 218891289 550301038 142470433#1 142470433#2 142470433#3 142470433#4 -142470433#4 -142470433#3" />
    </person>
    <person id="148" depart="148.00">
        <walk edges="142470461 216268744 154607613#1 154607613#0 154607611 775381932 216243708#1 359349713#0" />
    </person>
    <person id="159" depart="159.00">
        <walk edges="109573928#1 -109573928#1.8 218891289 142470465 217365458#2 217365458#1 358043015#3 -217365458#0 -217365458#1 -217365458#2 362088243#1 27528360" />
    </person>
    <person id="166" depart="166.00">
        <walk edges="775381932 154607611 154607613#0 154607613#1 216268744 142470461 142470465 218891289 550301038 142470433#1 142470433#2 142470433#3" />
    </person>
    <person id="177" depart="177.00">
        <walk edges="-217365458#2 -217365458#1 -217365458#0 358043015#3 217365458#1 217365458#2 142470461 216268744 154607613#1 154607613#0 154607611 217365460#2 217365460#1" />
    </person>
    <person id="185" depart="185.00">
        <walk edges="362088243#1 -217365458#2 -217365458#1 -217365458#0 358043015#3 217365458#1 217365458#2 142470465 218891289 550301038 142470433#1 142470433#2 142470433#3 142470433#4" />
    </person>
    <person id="190" depart="190.00">
        <walk edges="550301038 218891289 142470465 142470461 216268744 154607613#1 154607613#0 154607611 775381932 28490061#1 28490061#2 217365460#0 25567763#0" />
    </person>
    <person id="202" depart="202.00">
        <walk edges="549548862#1 -142470423#0 -159229344#0 216243708#1 775381932 154607611 154607613#0 154607613#1 216268744 142470461 142470465 218891289 550301038 142470433#1 142470433#2 142470433#3 142470433#4 -142470433#4 -142470433#3 -142470433#2" />
    </person>
    <person id="203" depart="203.00">
        <walk edges="359349713#0 216243708#1 775381932 154607611 154607613#0 154607613#1 216268744 142470461 142470465 218891289 -109573928#1.8 109573928#1" />
    </person>
    <person id="209" depart="209.00">
        <walk edges="359349713#2 359349713#0 216243708#1 775381932 217365460#2 97855879" />
    </person>
    <person id="216" depart="216.00">
        <walk edges="-217365458#1 -217365458#0 358043015#3 217365458#1 217365458#2 142470465 218891289 550301038 142470433#1 142470433#2 142470433#3 142470433#4 -142470433#4 -142470433#3 -142470433#2" />
    </person>
    <person id="217" depart="217.00">
        <walk edges="154607613#1 216268744 142470461 142470465 218891289 550301038 142470433#1 142470433#2 142470433#3 142470433#4 -142470433#4 -142470433#3" />
    </person>
    <person id="232" depart="232.00">
        <walk edges="142470433#1 550301038 218891289 142470465 142470461 216268744 154607613#1 154607613#0" />
    </person>
    <person id="233" depart="233.00">
        <walk edges="550301038 218891289 142470465 142470461 216268744 154607613#1 154607613#0 154607611 775381932 216243708#1 -159229344#0 -142470423#0" />
    </person>
    <person id="238" depart="238.00">
        <walk edges="220346965 216243708#1 215803157 215803174#0" />
    </person>
    <person id="243" depart="243.00">
        <walk edges="217691393#0 217691393#1 215803157 216243708#1 775381932 154607611 154607613#0 154607613#1 216268744 142470461 217365458#2 217365458#1 358043015#3 -217365458#0 -217365458#1 -217365458#2 362088243#1 27528360" />
    </person>
    <person id="253" depart="253.00">
        <walk edges="142470433#3 142470433#2 142470433#1 550301038 218891289 142470465 142470461 216268744 154607613#1 154607613#0 154607611 775381932 216243708#1 215803157" />
    </person>
    <person id="255" depart="255.00">
        <walk edges="217365460#0 28490061#2 28490061#1 775381932 154607611 154607613#0 154607613#1 216268744 142470461 217365458#2 217365458#1 358043015#3 -217365458#0" />
    </person>
    <person id="256" depart="256.00">
        <walk edges="154607611 775381932 216243708#1 359349713#0" />
    </person>
    <person id="263" depart="263.00">
        <walk edges="217365458#2 142470465 218891289 550301038 142470433#1 142470433#2 142470433#3 142470433#4 -142470433#4 -142470433#3 -142470433#2" />
    </person>
    <person id="264" depart="264.00">
        <walk edges="216268744 154607613#1 154607613#0 154607611 775381932 216243708#1 215803157" />
    </person>
    <person id="275" depart="275.00">
        <walk edges="159229344#0 216243708#1 775381932 154607611 154607613#0 154607613#1 216268744 142470461 142470465 218891289 550301038 142470433#1 142470433#2 142470433#3" />
    </person>
    <person id="279" depart="279.00">
        <walk edges="142470433#2 142470433#1 550301038 218891289 142470465 142470461 216268744 154607613#1 154607613#0 154607611 775381932 216243708#1 215803157 215803174#0" />
    </person>
    <person id="289" depart="289.00">
        <walk edges="220346965 154607611 154607613#0 154607613#1 216268744 142470461 142470465 218891289 550301038" />
    </person>
    <person id="305" depart="305.00">
        <walk edges="359349713#0 216243708#1 775381932 154607611" />
    </person>
    <person id="310" depart="310.00">
        <walk edges="25567763#0 217365460#0 28490061#2 28490061#1 775381932 154607611 154607613#0 154607613#1" />
    </person>
    <person id="311" depart="311.00">
        <walk edges="159229344#0.2 159229344#0 216243708#1 775381932 154607611 154607613#0 154607613#1 216268744" />
    </person>
    <person id="318" depart="318.00">
        <walk edges="97855879 217365460#2 154607611 154607613#0 154607613#1 216268744 142470461 142470465 218891289 550301038 142470433#1 142470433#2 142470433#3 142470433#4 -142470433#4 -142470433#3 -142470433#2 142470460#0" />
    </person>
    <person id="328" depart="328.00">
        <walk edges="25567763#0 217365460#0 28490061#2 28490061#1 775381932 154607611 154607613#0 154607613#1 216268744 142470461 142470465 218891289 550301038 142470433#1 142470433#2 142470433#3 142470433#4 -142470433#4 -142470433#3 -142470433#2 142470460#0" />
    </person>
    <person id="332" depart="332.00">
        <walk edges="217365460#2 154607611 154607613#0 154607613#1 216268744 142470461 142470465 218891289 550301038" />
    </person>
    <person id="338" depart="338.00">
        <walk edges="142470465 142470461 216268744 154607613#1 154607613#0 154607611 775381932 216243708#1 -159229344#0 -142470423#0 549548862#1" />
    </person>
    <person id="343" depart="343.00">
        <walk edges="-142470433#1 550301038" />
    </person>
    <person id="346" depart="346.00">
        <walk edges="216268744 154607613#1 154607613#0 154607611 775381932 216243708#1 215803157 217691393#1 217691393#0" />
    </person>
    <person id="347" depart="347.00">
        <walk edges="359349713#2 359349713#0 216243708#1 775381932 154607611 154607613#0 154607613#1 216268744 142470461 142470465 218891289 550301038 142470433#1 142470433#2 142470433#3 142470433#4 -142470433#4 -142470433#3 -142470433#2 142470460#0 142470460#1" />
    </person>
    <person id="356" depart="356.00">
        <walk edges="217365458#2 142470461" />
    </person>
    <person id="361" depart="361.00">
        <walk edges="-142470423#0 -159229344#0 216243708#1 775381932 154607611 154607613#0 154607613#1 216268744 142470461 142470465 218891289 550301038 142470433#1 142470433#2 142470433#3 142470433#4 -142470433#4 -142470433#3 -142470433#2" />
    </person>
    <person id="362" depart="362.00">
        <walk edges="-142470423#0 -159229344#0 216243708#1 775381932 154607611 154607613#0 154607613#1 216268744 142470461 217365458#2 217365458#1 358043015#3 -217365458#0 -217365458#1 -217365458#2" />
    </person>
    <person id="363" depart="363.00">
        <walk edges="159229344#0 216243708#1 775381932 154607611 154607613#0 154607613#1 216268744 142470461 142470465 218891289 550301038 142470433#1 142470433#2 142470433#3" />
    </person>
    <person id="366" depart="366.00">
        <walk edges="359349713#0 216243708#1 775381932 154607611 154607613#0 154607613#1 216268744 142470461 142470465 218891289 550301038 142470433#1" />
    </person>
    <person id="369" depart="369.00">
        <walk edges="-217365458#1 -217365458#0 358043015#3 217365458#1 217365458#2 142470461" />
    </person>
    <person id="376" depart="376.00">
        <walk edges="359349713#0 216243708#1 775381932 217365460#2" />
    </person>
    <person id="380" depart="380.00">
        <walk edges="-217365458#2 -217365458#1 -217365458#0 358043015#3 217365458#1 217365458#2 142470461 216268744 154607613#1 154607613#0 154607611 775381932 28490061#1" />
    </person>
    <person id="395" depart="395.00">
        <walk edges="-142470433#2 -142470433#3 -142470433#4 142470433#4 142470433#3 142470433#2 142470433#1 550301038 218891289 142470465 142470461 216268744 154607613#1 154607613#0 154607611 775381932 216243708#1 -159229344#0" />
    </person>
    <person id="396" depart="396.00">
        <walk edges="216268744 154607613#1 154607613#0 154607611 775381932 216243708#1 159229344#0" />
    </person>
    <person id="397" depart="397.00">
        <walk edges="142470423#2 142470423#1 142470423#0" />
    </person>
    <person id="405" depart="405.00">
        <walk edges="215803157 216243708#1 775381932 154607611 154607613#0 154607613#1 216268744 142470461 217365458#2" />
    </person>
    <person id="406" depart="406.00">
        <walk edges="-142470433#2 -142470433#3 -142470433#4 142470433#4 142470433#3 142470433#2 142470433#1 550301038 218891289 142470465 217365458#2 217365458#1" />
    </person>
    <person id="438" depart="438.00">
        <walk edges="216268747 159229344#0.2 159229344#0 216243708#1 775381932 217365460#2 217365460#1" />
    </person>
    <person id="442" depart="442.00">
        <walk edges="362088243#1 -217365458#2 -217365458#1 -217365458#0 358043015#3" />
    </person>
    <person id="448" depart="448.00">
        <walk edges="91731873#1 217691393#0 217691393#1 215803157 159229344#0 159229344#0.2 216268747" />
    </person>
    <person id="465" depart="465.00">
        <walk edges="159229344#0.2 159229344#0 216243708#1 775381932 154607611 154607613#0 154607613#1 216268744 142470461 142470465 218891289 550301038 142470433#1 142470433#2 142470433#3 142470433#4 -142470433#4 -142470433#3" />
    </person>
    <person id="468" depart="468.00">
        <walk edges="142470433#2 142470433#1 550301038 218891289 142470465 142470461 216268744 154607613#1 154607613#0 154607611 775381932" />
    </person>
    <person id="473" depart="473.00">
        <walk edges="216268747 159229344#0.2 159229344#0 216243708#1 775381932 154607611 154607613#0 154607613#1 216268744 142470461 142470465 218891289 550301038 142470433#1 142470433#2 142470433#3 142470433#4 -142470433#4 -142470433#3 -142470433#2 142470460#0 142470460#1" />
    </person>
    <person id="479" depart="479.00">
        <walk edges="28370559#8 28370559#7 -142470423#2" />
    </person>
    <person id="484" depart="484.00">
        <walk edges="215803157 216243708#1 775381932 154607611" />
    </person>
    <person id="488" depart="488.00">
        <walk edges="216268747 159229344#0.2 159229344#0 216243708#1 220346965" />
    </person>
    <person id="493" depart="493.00">
        <walk edges="217691393#0 217691393#1 215803157 159229344#0 159229344#0.2" />
    </person>
    <person id="498" depart="498.00">
        <walk edges="-142470423#0 -159229344#0 216243708#1 775381932" />
    </person>
    <person id="503" depart="503.00">
        <walk edges="-142470423#0 -159229344#0 216243708#1 775381932 154607611 154607613#0 154607613#1 216268744 142470461 142470465 218891289" />
    </person>
    <person id="506" depart="506.00">
        <walk edges="142470433#3 142470433#2 142470433#1 550301038 218891289 142470465 217365458#2 217365458#1 358043015#3" />
    </person>
    <person id="508" depart="508.00">
        <walk edges="359349713#2 359349713#0 216243708#1 775381932 154607611 154607613#0 154607613#1 216268744 142470461 142470465 218891289 550301038 142470433#1 142470433#2 142470433#3" />
    </person>
    <person id="515" depart="515.00">
        <walk edges="142470465 217365458#2 217365458#1 358043015#3 -217365458#0 -217365458#1" />
    </person>
    <person id="534" depart="534.00">
        <walk edges="359349713#0 216243708#1 775381932 154607611 154607613#0 154607613#1 216268744 142470461 142470465 218891289 550301038 142470433#1 142470433#2 142470433#3" />
    </person>
    <person id="537" depart="537.00">
        <walk edges="217365458#2 142470461 216268744 154607613#1 154607613#0 154607611 775381932 216243708#1 215803157 215803174#0" />
    </person>
    <person id="541" depart="541.00">
        <walk edges="358043015#3 217365458#1 217365458#2 142470465 218891289 -109573928#1.8 109573928#1" />
    </person>
    <person id="544" depart="544.00">
        <walk edges="217365458#2 217365458#1 358043015#3 -217365458#0 -217365458#1 -217365458#2" />
    </person>
    <person id="551" depart="551.00">
        <walk edges="359349713#0 216243708#1 775381932 154607611 154607613#0 154607613#1 216268744 142470461 142470465 218891289 550301038 142470433#1 142470433#2 142470433#3 142470433#4 -142470433#4 -142470433#3" />
    </person>
    <person id="553" depart="553.00">
        <walk edges="-142470433#2 142470460#0 142470460#1" />
    </person>
    <person id="559" depart="559.00">
        <walk edges="216243708#1 775381932 154607611 154607613#0 154607613#1 216268744 142470461 217365458#2 217365458#1 358043015#3 -217365458#0" />
    </person>
    <person id="580" depart="580.00">
        <walk edges="159229344#0 216243708#1 775381932 154607611 154607613#0 154607613#1 216268744 142470461" />
    </person>
    <person id="585" depart="585.00">
        <walk edges="215803174#0 215803157 216243708#1 775381932 154607611 154607613#0 154607613#1 216268744 142470461 142470465 218891289 -109573928#1.8" />
    </person>
    <person id="587" depart="587.00">
        <walk edges="-142470423#0 -159229344#0 216243708#1 775381932 154607611 154607613#0 154607613#1 216268744 142470461 217365458#2 217365458#1 358043015#3 -217365458#0 -217365458#1 -217365458#2 362088243#1" />
    </person>
    <person id="596" depart="596.00">
        <walk edges="-142470433#3 -142470433#4 142470433#4 142470433#3 142470433#2 142470433#1 550301038 218891289 142470465 142470461 216268744 154607613#1 154607613#0 154607611 775381932" />
    </person>
    <person id="599" depart="599.00">
        <walk edges="28490061#1 216243708#1 -159229344#0 -142470423#0 549548862#1" />
    </person>
    <person id="606" depart="606.00">
        <walk edges="-142470433#1 550301038 218891289 142470465 142470461 216268744 154607613#1 154607613#0 154607611 775381932 28490061#1 28490061#2 217365460#0" />
    </person>
    <person id="609" depart="609.00">
        <walk edges="220346965 154607611 154607613#0 154607613#1 216268744 142470461 142470465 218891289 550301038 -142470433#1" />
    </person>
    <person id="612" depart="612.00">
        <walk edges="217365460#2 775381932 216243708#1 159229344#0 159229344#0.2 216268747" />
    </person>
    <person id="623" depart="623.00">
        <walk edges="-159229344#0 216243708#1 775381932 154607611 154607613#0 154607613#1 216268744 142470461 142470465 218891289 550301038 142470433#1 142470433#2 142470433#3 142470433#4 -142470433#4 -142470433#3 -142470433#2" />
    </person>
    <person id="646" depart="646.00">
        <walk edges="217365458#1 217365458#2 142470461 216268744 154607613#1" />
    </person>
    <person id="647" depart="647.00">
        <walk edges="142470460#1 142470460#0 -142470433#2 -142470433#3 -142470433#4 142470433#4 142470433#3 142470433#2 142470433#1 550301038 218891289 142470465 142470461 216268744 154607613#1 154607613#0 154607611 775381932" />
    </person>
    <person id="648" depart="648.00">
        <walk edges="217365458#1 217365458#2" />
    </person>
    <person id="650" depart="650.00">
        <walk edges="217691393#0 217691393#1 215803157 216243708#1 28490061#1 28490061#2 217365460#0" />
    </person>
    <person id="652" depart="652.00">
        <walk edges="-159229344#0 216243708#1 775381932 154607611 154607613#0 154607613#1 216268744 142470461 217365458#2 217365458#1 358043015#3 -217365458#0 -217365458#1 -217365458#2 362088243#1 27528360" />
    </person>
    <person id="658" depart="658.00">
        <walk edges="-142470433#2 -142470433#3 -142470433#4 142470433#4 142470433#3 142470433#2 142470433#1 550301038 218891289 142470465 217365458#2 217365458#1 358043015#3 -217365458#0 -217365458#1" />
    </person>
    <person id="673" depart="673.00">
        <walk edges="-217365458#0 358043015#3 217365458#1 217365458#2 142470461 216268744 154607613#1 154607613#0 154607611 775381932 216243708#1 215803157 215803174#0" />
    </person>
    <person id="685" depart="685.00">
        <walk edges="27528360 362088243#1 -217365458#2 -217365458#1 -217365458#0 358043015#3 217365458#1 217365458#2 142470461 216268744 154607613#1 154607613#0 154607611 775381932 216243708#1 159229344#0" />
    </person>
    <person id="686" depart="686.00">
        <walk edges="216268747 159229344#0.2 159229344#0 216243708#1 775381932 154607611 154607613#0 154607613#1 216268744 142470461 142470465 218891289 550301038 142470433#1 142470433#2 142470433#3 142470433#4 -142470433#4 -142470433#3 -142470433#2 142470460#0 142470460#1" />
    </person>
    <person id="687" depart="687.00">
        <walk edges="142470460#1 142470460#0 -142470433#2 -142470433#3 -142470433#4 142470433#4" />
    </person>
    <person id="691" depart="691.00">
        <walk edges="-216268747 159229344#0.2 159229344#0 216243708#1 775381932 154607611 154607613#0 154607613#1 216268744 142470461 142470465 218891289 550301038 142470433#1 142470433#2 142470433#3 142470433#4 -142470433#4 -142470433#3 -142470433#2" />
    </person>
    <person id="693" depart="693.00">
        <walk edges="-216268747 159229344#0.2 159229344#0 215803157 217691393#1 217691393#0 91731873#1" />
    </person>
    <person id="698" depart="698.00">
        <walk edges="217365458#1 217365458#2 142470465 218891289 -109573928#1.8" />
    </person>
    <person id="699" depart="699.00">
        <walk edges="218891289 550301038 142470433#1" />
    </person>
    <person id="703" depart="703.00">
        <walk edges="142470465 142470461 216268744 154607613#1 154607613#0 154607611 217365460#2" />
    </person>
    <person id="708" depart="708.00">
        <walk edges="-217365458#2 -217365458#1 -217365458#0 358043015#3 217365458#1 217365458#2 142470461 216268744 154607613#1 154607613#0 154607611 775381932" />
    </person>
    <person id="709" depart="709.00">
        <walk edges="-142470433#3 -142470433#4 142470433#4 142470433#3 142470433#2 142470433#1 550301038 218891289 142470465 142470461 216268744 154607613#1 154607613#0 154607611 775381932 216243708#1 215803157 217691393#1 217691393#0" />
    </person>
    <person id="714" depart="714.00">
        <walk edges="27528360 362088243#1 -217365458#2 -217365458#1 -217365458#0 358043015#3 217365458#1 217365458#2 142470461 216268744 154607613#1 154607613#0 154607611 775381932 216243708#1 215803157 217691393#1 217691393#0 91731873#1" />
    </person>
    <person id="716" depart="716.00">
        <walk edges="216243708#1 28490061#1 28490061#2 217365460#0" />
    </person>
    <person id="720" depart="720.00">
        <walk edges="217365458#1 358043015#3 -217365458#0 -217365458#1 -217365458#2 362088243#1 27528360" />
    </person>
    <person id="746" depart="746.00">
        <walk edges="-216268747 159229344#0.2 159229344#0 216243708#1 28490061#1" />
    </person>
    <person id="766" depart="766.00">
        <walk edges="217365458#2 142470465 218891289 550301038 142470433#1 142470433#2" />
    </person>
    <person id="769" depart="769.00">
        <walk edges="550301038 218891289 142470465 142470461 216268744 154607613#1" />
    </person>
    <person id="773" depart="773.00">
        <walk edges="549548862#1 -142470423#0 -159229344#0 216243708#1 775381932 154607611 154607613#0 154607613#1 216268744 142470461 142470465 218891289 550301038 142470433#1 142470433#2 142470433#3 142470433#4" />
    </person>
    <person id="777" depart="777.00">
        <walk edges="91731873#1 217691393#0 217691393#1 215803157 216243708#1 775381932 154607611 154607613#0 154607613#1 216268744 142470461 217365458#2 217365458#1" />
    </person>
    <person id="784" depart="784.00">
        <walk edges="216268747 159229344#0.2 159229344#0 216243708#1 775381932 154607611 154607613#0 154607613#1 216268744 142470461 217365458#2 217365458#1 358043015#3 -217365458#0 -217365458#1 -217365458#2 362088243#1" />
    </person>
    <person id="793" depart="793.00">
        <walk edges="154607613#1 216268744 142470461 142470465 218891289 -109573928#1.8 109573928#1" />
    </person>
    <person id="804" depart="804.00">
        <walk edges="154607613#0 154607611 775381932 216243708#1 215803157 217691393#1" />
    </person>
    <person id="807" depart="807.00">
        <walk edges="-142470423#0 -159229344#0 216243708#1 775381932 154607611 154607613#0 154607613#1 216268744 142470461 142470465 218891289 550301038 142470433#1" />
    </person>
    <person id="820" depart="820.00">
        <walk edges="142470433#4 142470433#3 142470433#2 142470433#1 550301038 218891289 142470465 142470461 216268744 154607613#1 154607613#0 154607611 775381932 216243708#1 159229344#0 159229344#0.2 216268747" />
    </person>
    <person id="822" depart="822.00">
        <walk edges="154607613#1 154607613#0 154607611 217365460#2 217365460#1" />
    </person>
    <person id="826" depart="826.00">
        <walk edges="154607613#0 154607613#1 216268744 142470461 142470465 218891289 550301038 142470433#1 142470433#2 142470433#3 142470433#4 -142470433#4 -142470433#3 -142470433#2 142470460#0 142470460#1" />
    </person>
    <person id="850" depart="850.00">
        <walk edges="27528360 362088243#1 -217365458#2 -217365458#1 -217365458#0 358043015#3 217365458#1 217365458#2 142470461 216268744 154607613#1 154607613#0 154607611 775381932 216243708#1 359349713#0" />
    </person>
    <person id="854" depart="854.00">
        <walk edges="358043015#3 217365458#1 217365458#2 142470465 218891289 -109573928#1.8" />
    </person>
    <person id="855" depart="855.00">
        <walk edges="775381932 216243708#1 215803157 217691393#1 217691393#0 91731873#1" />
    </person>
    <person id="859" depart="859.00">
        <walk edges="-217365458#1 -217365458#0 358043015#3 217365458#1 217365458#2 142470461 216268744 154607613#1 154607613#0 154607611 775381932 28490061#1 28490061#2 217365460#0 25567763#0" />
    </person>
    <person id="869" depart="869.00">
        <walk edges="-217365458#0 358043015#3 217365458#1 217365458#2 142470461 216268744 154607613#1 154607613#0 154607611" />
    </person>
    <person id="871" depart="871.00">
        <walk edges="-142470423#0 -159229344#0 216243708#1 775381932 154607611 154607613#0 154607613#1 216268744 142470461 142470465 218891289 550301038 142470433#1 142470433#2 142470433#3 142470433#4 -142470433#4 -142470433#3 -142470433#2" />
    </person>
    <person id="881" depart="881.00">
        <walk edges="142470460#0 -142470433#2 -142470433#3 -142470433#4" />
    </person>
    <person id="888" depart="888.00">
        <walk edges="216268747 159229344#0.2 159229344#0 216243708#1 775381932 154607611 154607613#0 154607613#1 216268744 142470461 142470465 218891289 550301038 142470433#1 142470433#2 142470433#3 142470433#4 -142470433#4" />
    </person>
    <person id="889" depart="889.00">
        <walk edges="217365458#1 217365458#2 142470461 216268744 154607613#1 154607613#0 154607611 775381932 216243708#1 159229344#0 159229344#0.2" />
    </person>
    <person id="892" depart="892.00">
        <walk edges="27528360 362088243#1 -217365458#2 -217365458#1 -217365458#0 358043015#3 217365458#1 217365458#2 142470461 216268744 154607613#1 154607613#0 154607611 775381932 28490061#1 28490061#2 217365460#0 25567763#0" />
    </person>
    <person id="901" depart="901.00">
        <walk edges="217365460#2 775381932 216243708#1 159229344#0 159229344#0.2 -216268747" />
    </person>
    <person id="904" depart="904.00">
        <walk edges="109573928#1 -109573928#1.8 218891289 142470465 142470461 216268744 154607613#1 154607613#0 154607611 775381932 216243708#1" />
    </person>
    <person id="905" depart="905.00">
        <walk edges="217691393#0 217691393#1 215803157 216243708#1 775381932 154607611 154607613#0 154607613#1 216268744 142470461 142470465 218891289 550301038 142470433#1 142470433#2 142470433#3 142470433#4 -142470433#4 -142470433#3 -142470433#2" />
    </person>
    <person id="909" depart="909.00">
        <walk edges="362088243#1 -217365458#2 -217365458#1" />
    </person>
    <person id="922" depart="922.00">
        <walk edges="-159229344#0 216243708#1 775381932 154607611 154607613#0 154607613#1 216268744 142470461 142470465 218891289 550301038 -142470433#1" />
    </person>
    <person id="925" depart="925.00">
        <walk edges="216268747 159229344#0.2 159229344#0 216243708#1 775381932 154607611 154607613#0 154607613#1 216268744 142470461" />
    </person>
    <person id="926" depart="926.00">
        <walk edges="216268744 142470461 142470465 218891289 550301038 142470433#1 142470433#2 142470433#3 142470433#4 -142470433#4 -142470433#3" />
    </person>
    <person id="928" depart="928.00">
        <walk edges="549548862#1 -142470423#0 -159229344#0 216243708#1 775381932 217365460#2 97855879" />
    </person>
    <person id="930" depart="930.00">
        <walk edges="91731873#1 217691393#0 217691393#1 215803157 -159229344#0" />
    </person>
    <person id="933" depart="933.00">
        <walk edges="217365458#2 142470461 216268744 154607613#1 154607613#0 154607611 217365460#2" />
    </person>
    <person id="950" depart="950.00">
        <walk edges="-142470433#2 -142470433#3 -142470433#4 142470433#4 142470433#3 142470433#2 142470433#1 550301038 218891289 142470465 142470461 216268744 154607613#1 154607613#0 154607611 775381932 216243708#1 159229344#0 159229344#0.2 216268747" />
    </person>
    <person id="952" depart="952.00">
        <walk edges="27528360 362088243#1 -217365458#2 -217365458#1 -217365458#0 358043015#3 217365458#1 217365458#2 142470461 216268744 154607613#1 154607613#0 154607611 220346965" />
    </person>
    <person id="962" depart="962.00">
        <walk edges="154607611 775381932 216243708#1 159229344#0 159229344#0.2" />