<additional>
    <flow id="-142470433#4_159229344#0.2.qPKW" departSpeed="max" departPos="last" departLane="best" route="-142470433#4_159229344#0.2.qPKW" number="36" begin="0" end="3600"/>
    <flow id="-142470433#4_159229344#0.2.1.qPKW" departSpeed="max" departPos="last" departLane="best" route="-142470433#4_159229344#0.2.1.qPKW" number="18" begin="0" end="3600"/>
    <flow id="-142470433#4_-217365458#0.qPKW" departSpeed="max" departPos="last" departLane="best" route="-142470433#4_-217365458#0.qPKW" number="166" begin="0" end="3600"/>
    <flow id="109573928#1_142470433#4.qPKW" departSpeed="max" departPos="last" departLane="best" route="109573928#1_142470433#4.qPKW" number="234" begin="0" end="3600"/>
    <flow id="109573928#1_159229344#0.2.qPKW" departSpeed="max" departPos="last" departLane="best" route="109573928#1_159229344#0.2.qPKW" number="12" begin="0" end="3600"/>
    <flow id="109573928#1_-217365458#0.qPKW" departSpeed="max" departPos="last" departLane="best" route="109573928#1_-217365458#0.qPKW" number="54" begin="0" end="3600"/>
    <flow id="109573928#1_28490061#2.qPKW" departSpeed="max" departPos="last" departLane="best" route="109573928#1_28490061#2.qPKW" number="50" begin="0" end="3600"/>
    <flow id="216243701_-109573928#1.8.qPKW" departSpeed="max" departPos="last" departLane="best" route="216243701_-109573928#1.8.qPKW" number="350" begin="0" end="3600"/>
    <flow id="216243701_-217365458#0.qPKW" departSpeed="max" departPos="last" departLane="best" route="216243701_-217365458#0.qPKW" number="450" begin="0" end="3600"/>
    <flow id="216243701_217553754.qPKW" departSpeed="max" departPos="last" departLane="best" route="216243701_217553754.qPKW" number="4131" begin="0" end="3600"/>
    <flow id="216650879_215803108.qPKW" departSpeed="max" departPos="last" departLane="best" route="216650879_215803108.qPKW" number="3707" begin="0" end="3600"/>
    <flow id="216650879_159229344#0.2.qPKW" departSpeed="max" departPos="last" departLane="best" route="216650879_159229344#0.2.qPKW" number="184" begin="0" end="3600"/>
    <flow id="216650879_-217365458#0.qPKW" departSpeed="max" departPos="last" departLane="best" route="216650879_-217365458#0.qPKW" number="10" begin="0" end="3600"/>
    <flow id="216650879_28490061#2.qPKW" departSpeed="max" departPos="last" departLane="best" route="216650879_28490061#2.qPKW" number="350" begin="0" end="3600"/>
    <flow id="217365460#0_-217365458#0.qPKW" departSpeed="max" departPos="last" departLane="best" route="217365460#0_-217365458#0.qPKW" number="20" begin="0" end="3600"/>
    <flow id="217365460#0_215803108.qPKW" departSpeed="max" departPos="last" departLane="best" route="217365460#0_215803108.qPKW" number="300" begin="0" end="3600"/>
    <flow id="358043015#3_-109573928#1.8.qPKW" departSpeed="max" departPos="last" departLane="best" route="358043015#3_-109573928#1.8.qPKW" number="234" begin="0" end="3600"/>
    <flow id="358043015#3_142470433#4.qPKW" departSpeed="max" departPos="last" departLane="best" route="358043015#3_142470433#4.qPKW" number="16" begin="0" end="3600"/>
    <flow id="358043015#3_28490061#2.qPKW" departSpeed="max" departPos="last" departLane="best" route="358043015#3_28490061#2.qPKW" number="550" begin="0" end="3600"/>
</additional>
