<additional>
    <flow id="-142470433#4_101005127.945.qPKW" departSpeed="max" departPos="last" departLane="best" route="-142470433#4_101005127.945.qPKW" number="354" begin="0" end="3600"/>
    <flow id="109573928#1_101005127.945.qPKW" departSpeed="max" departPos="last" departLane="best" route="109573928#1_101005127.945.qPKW" number="416" begin="0" end="3600"/>
    <flow id="216243700_217553754.qPKW" departSpeed="max" departPos="last" departLane="best" route="216243700_217553754.qPKW" number="3405" begin="0" end="3600"/>
    <flow id="216650879_101005127.945.qPKW" departSpeed="max" departPos="last" departLane="best" route="216650879_101005127.945.qPKW" number="602" begin="0" end="3600"/>
    <flow id="216650879_217553754.qPKW" departSpeed="max" departPos="last" departLane="best" route="216650879_217553754.qPKW" number="411" begin="0" end="3600"/>
    <flow id="216650879_101005127.945.1.qPKW" departSpeed="max" departPos="last" departLane="best" route="216650879_101005127.945.1.qPKW" number="2635" begin="0" end="3600"/>
    <flow id="216650879_28490061#1.qPKW" departSpeed="max" departPos="last" departLane="best" route="216650879_28490061#1.qPKW" number="300" begin="0" end="3600"/>
    <flow id="217365460#0_217553754.qPKW" departSpeed="max" departPos="last" departLane="best" route="217365460#0_217553754.qPKW" number="300" begin="0" end="3600"/>
    <flow id="217365460#0_-217365458#0.qPKW" departSpeed="max" departPos="last" departLane="best" route="217365460#0_-217365458#0.qPKW" number="520" begin="0" end="3600"/>
    <flow id="358043015#3_-109573928#1.8.qPKW" departSpeed="max" departPos="last" departLane="best" route="358043015#3_-109573928#1.8.qPKW" number="320" begin="0" end="3600"/>
</additional>
