<?xml version="1.0" encoding="UTF-8"?>

<!-- generated on 05/09/20 17:07:53 by Eclipse SUMO duarouter Version 1.5.0
<configuration xmlns:xsi="http://www.w3.org/2001/XMLSchema-instance" xsi:noNamespaceSchemaLocation="http://sumo.dlr.de/xsd/duarouterConfiguration.xsd">

    <input>
        <net-file value="anchieta.net.xml"/>
        <route-files value="trips.trips.xml"/>
    </input>

    <output>
        <output-file value="peatones_aleatorios.rou.xml"/>
        <alternatives-output value="peatones_aleatorios.rou.alt.xml"/>
    </output>

    <time>
        <begin value="0"/>
        <end value="3600"/>
    </time>

    <report>
        <no-warnings value="true"/>
        <ignore-errors value="true"/>
        <no-step-log value="true"/>
    </report>

</configuration>
-->

<routes xmlns:xsi="http://www.w3.org/2001/XMLSchema-instance" xsi:noNamespaceSchemaLocation="http://sumo.dlr.de/xsd/routes_file.xsd">
    <person id="1" depart="1.00">
        <walk edges="549548862#1 -142470423#0 -159229344#0 216243708#1"/>
    </person>
    <person id="3" depart="3.00">
        <walk edges="109573928#1 -109573928#1.8 218891289 142470465 142470461 216268744 154607613#1 154607613#0 154607611 775381932 216243708#1 159229344#0 159229344#0.2"/>
    </person>
    <person id="4" depart="4.00">
        <walk edges="154607613#1 154607613#0 154607611 775381932 216243708#1 215803157 217691393#1 217691393#0 91731873#1"/>
    </person>
    <person id="6" depart="6.00">
        <walk edges="28490061#1 775381932 154607611 154607613#0 154607613#1 216268744 142470461 142470465 218891289 550301038 -142470433#1"/>
    </person>
    <person id="8" depart="8.00">
        <walk edges="-216268747 159229344#0.2 159229344#0 216243708#1 775381932 154607611 154607613#0 154607613#1 216268744 142470461 217365458#2 217365458#1 358043015#3"/>
    </person>
    <person id="9" depart="9.00">
        <walk edges="142470461 216268744 154607613#1 154607613#0 154607611 775381932 216243708#1 215803157 215803174#0"/>
    </person>
    <person id="13" depart="13.00">
        <walk edges="-142470433#3 -142470433#4 142470433#4 142470433#3 142470433#2 142470433#1 550301038 218891289 142470465 217365458#2 217365458#1 358043015#3 -217365458#0 -217365458#1 -217365458#2"/>
    </person>
    <person id="14" depart="14.00">
        <walk edges="216243708#1 775381932 154607611 154607613#0 154607613#1 216268744 142470461 217365458#2 217365458#1 358043015#3"/>
    </person>
    <person id="16" depart="16.00">
        <walk edges="217365460#0 28490061#2 28490061#1 775381932 154607611 154607613#0 154607613#1 216268744 142470461 142470465 218891289 550301038"/>
    </person>
    <person id="17" depart="17.00">
        <walk edges="217365460#1 217365460#2 154607611 154607613#0 154607613#1 216268744 142470461 217365458#2"/>
    </person>
    <person id="19" depart="19.00">
        <walk edges="28490061#2 28490061#1 775381932 154607611 154607613#0 154607613#1 216268744 142470461 142470465 218891289 550301038 142470433#1 142470433#2 142470433#3 142470433#4 -142470433#4 -142470433#3 -142470433#2 142470460#0"/>
    </person>
    <person id="21" depart="21.00">
        <walk edges="-142470433#3 -142470433#4 142470433#4 142470433#3 142470433#2 142470433#1 550301038 218891289 142470465 217365458#2 217365458#1 358043015#3"/>
    </person>
    <person id="22" depart="22.00">
        <walk edges="-217365458#0 358043015#3 217365458#1 217365458#2 142470461 216268744 154607613#1 154607613#0 154607611 775381932 216243708#1 -159229344#0 -142470423#0"/>
    </person>
    <person id="24" depart="24.00">
        <walk edges="-142470433#3 -142470433#4 142470433#4 142470433#3 142470433#2 142470433#1 550301038 218891289 142470465 217365458#2"/>
    </person>
    <person id="25" depart="25.00">
        <walk edges="217365460#0 28490061#2 28490061#1 775381932 154607611 154607613#0 154607613#1 216268744 142470461 217365458#2"/>
    </person>
    <person id="26" depart="26.00">
        <walk edges="25567763#0 217365460#0 28490061#2 28490061#1 775381932 154607611 154607613#0 154607613#1 216268744 142470461 142470465 218891289 550301038 142470433#1 142470433#2 142470433#3 142470433#4 -142470433#4 -142470433#3 -142470433#2 142470460#0 142470460#1"/>
    </person>
    <person id="28" depart="28.00">
        <walk edges="359349713#2 359349713#0 216243708#1 775381932 154607611 154607613#0 154607613#1 216268744 142470461 217365458#2 217365458#1 358043015#3 -217365458#0 -217365458#1 -217365458#2"/>
    </person>
    <person id="29" depart="29.00">
        <walk edges="142470433#3 142470433#2 142470433#1 550301038 218891289 142470465 142470461 216268744 154607613#1 154607613#0 154607611 775381932 216243708#1"/>
    </person>
    <person id="31" depart="31.00">
        <walk edges="159229344#0.2 159229344#0 216243708#1 775381932 154607611 154607613#0 154607613#1 216268744 142470461 142470465 218891289 550301038 142470433#1 142470433#2 142470433#3 142470433#4 -142470433#4 -142470433#3 -142470433#2 142470460#0 142470460#1"/>
    </person>
    <person id="32" depart="32.00">
        <walk edges="-217365458#2 -217365458#1 -217365458#0 358043015#3 217365458#1 217365458#2 142470465 218891289 550301038 142470433#1 142470433#2 142470433#3 142470433#4 -142470433#4"/>
    </person>
    <person id="35" depart="35.00">
        <walk edges="216268744 142470461 142470465 218891289 550301038 142470433#1 142470433#2 142470433#3 142470433#4 -142470433#4 -142470433#3"/>
    </person>
    <person id="37" depart="37.00">
        <walk edges="28490061#2 28490061#1 775381932 154607611 154607613#0 154607613#1"/>
    </person>
    <person id="38" depart="38.00">
        <walk edges="217365460#0 28490061#2 28490061#1 775381932 217365460#2 217365460#1"/>
    </person>
    <person id="40" depart="40.00">
        <walk edges="359349713#0 216243708#1 775381932 154607611 154607613#0 154607613#1 216268744 142470461 142470465 218891289 550301038 142470433#1"/>
    </person>
    <person id="41" depart="41.00">
        <walk edges="217691393#0 217691393#1 215803157 216243708#1 775381932 217365460#2"/>
    </person>
    <person id="42" depart="42.00">
        <walk edges="-217365458#1 -217365458#0 358043015#3 217365458#1 217365458#2 142470461 216268744 154607613#1 154607613#0 154607611 775381932 216243708#1"/>
    </person>
    <person id="46" depart="46.00">
        <walk edges="142470433#4 142470433#3 142470433#2 142470433#1 550301038 218891289 142470465 142470461 216268744 154607613#1 154607613#0 154607611 220346965"/>
    </person>
    <person id="47" depart="47.00">
        <walk edges="142470433#3 142470433#2 142470433#1 -142470433#1"/>
    </person>
    <person id="48" depart="48.00">
        <walk edges="142470461 142470465 218891289 550301038 142470433#1 142470433#2 142470433#3"/>
    </person>
    <person id="49" depart="49.00">
        <walk edges="-216268747 159229344#0.2 159229344#0 216243708#1 775381932 154607611 154607613#0 154607613#1 216268744 142470461 142470465 218891289 550301038 142470433#1 142470433#2 142470433#3 142470433#4"/>
    </person>
    <person id="51" depart="51.00">
        <walk edges="142470460#1 142470460#0 -142470433#2 -142470433#3 -142470433#4 142470433#4 142470433#3 142470433#2 142470433#1 550301038"/>
    </person>
    <person id="52" depart="52.00">
        <walk edges="-142470423#0 -159229344#0 216243708#1 28490061#1 28490061#2 217365460#0 25567763#0"/>
    </person>
    <person id="53" depart="53.00">
        <walk edges="91731873#1 217691393#0 217691393#1 215803157 216243708#1 775381932 217365460#2"/>
    </person>
    <person id="54" depart="54.00">
        <walk edges="217365460#2 154607611 154607613#0 154607613#1 216268744 142470461 142470465 218891289 550301038 142470433#1 142470433#2 142470433#3 142470433#4 -142470433#4 -142470433#3 -142470433#2 142470460#0 142470460#1"/>
    </person>
    <person id="55" depart="55.00">
        <walk edges="28490061#2 28490061#1 775381932 154607611 154607613#0 154607613#1 216268744 142470461 142470465 218891289 550301038 142470433#1 142470433#2 142470433#3"/>
    </person>
    <person id="57" depart="57.00">
        <walk edges="142470461 217365458#2 217365458#1 358043015#3 -217365458#0 -217365458#1"/>
    </person>
    <person id="58" depart="58.00">
        <walk edges="215803174#0 215803157 216243708#1 775381932 154607611 154607613#0 154607613#1 216268744 142470461 142470465 218891289 550301038 142470433#1 142470433#2 142470433#3 142470433#4 -142470433#4 -142470433#3"/>
    </person>
    <person id="59" depart="59.00">
        <walk edges="-217365458#1 -217365458#0 358043015#3 217365458#1 217365458#2 142470465 218891289 550301038 142470433#1 142470433#2 142470433#3 142470433#4 -142470433#4"/>
    </person>
    <person id="60" depart="60.00">
        <walk edges="217691393#1 215803157 216243708#1 775381932 154607611 154607613#0 154607613#1 216268744 142470461 142470465 218891289 550301038 142470433#1 142470433#2 142470433#3 142470433#4"/>
    </person>
    <person id="61" depart="61.00">
        <walk edges="-159229344#0 216243708#1 775381932 154607611 154607613#0 154607613#1 216268744 142470461 217365458#2 217365458#1 358043015#3 -217365458#0 -217365458#1"/>
    </person>
    <person id="62" depart="62.00">
        <walk edges="359349713#2 359349713#0 215803157 217691393#1 217691393#0"/>
    </person>
    <person id="63" depart="63.00">
        <walk edges="218891289 142470465 142470461 216268744 154607613#1 154607613#0 154607611 775381932 216243708#1 -159229344#0 -142470423#0 549548862#1"/>
    </person>
    <person id="64" depart="64.00">
        <walk edges="28490061#2 28490061#1 216243708#1 159229344#0"/>
    </person>
    <person id="65" depart="65.00">
        <walk edges="142470433#2 142470433#1 550301038 218891289"/>
    </person>
    <person id="67" depart="67.00">
        <walk edges="-142470433#4 142470433#4 142470433#3 142470433#2 142470433#1"/>
    </person>
    <person id="69" depart="69.00">
        <walk edges="217365460#1 217365460#2 154607611 154607613#0 154607613#1 216268744 142470461 142470465 218891289"/>
    </person>
    <person id="71" depart="71.00">
        <walk edges="-142470433#4 142470433#4 142470433#3 142470433#2 142470433#1 550301038 218891289 142470465 217365458#2 217365458#1 358043015#3 -217365458#0 -217365458#1 -217365458#2 362088243#1 27528360"/>
    </person>
    <person id="72" depart="72.00">
        <walk edges="28490061#1 775381932 154607611 154607613#0 154607613#1 216268744 142470461 142470465 218891289 550301038 142470433#1 142470433#2 142470433#3 142470433#4 -142470433#4 -142470433#3 -142470433#2"/>
    </person>
    <person id="77" depart="77.00">
        <walk edges="109573928#1 -109573928#1.8 218891289 142470465 217365458#2 217365458#1 358043015#3"/>
    </person>
    <person id="79" depart="79.00">
        <walk edges="-217365458#1 -217365458#0 358043015#3 217365458#1 217365458#2 142470461 216268744 154607613#1 154607613#0 154607611 775381932 28490061#1 28490061#2 217365460#0"/>
    </person>
    <person id="81" depart="81.00">
        <walk edges="-109573928#1.8 218891289 142470465 217365458#2"/>
    </person>
    <person id="82" depart="82.00">
        <walk edges="-142470433#3 -142470433#4 142470433#4 142470433#3 142470433#2 142470433#1 550301038 218891289 142470465 142470461 216268744 154607613#1 154607613#0 154607611 775381932 28490061#1 28490061#2 217365460#0 25567763#0"/>
    </person>
    <person id="83" depart="83.00">
        <walk edges="-217365458#0 358043015#3 217365458#1 217365458#2 142470465 218891289 -109573928#1.8"/>
    </person>
    <person id="84" depart="84.00">
        <walk edges="-217365458#0 358043015#3 217365458#1 217365458#2 142470461 216268744"/>
    </person>
    <person id="85" depart="85.00">
        <walk edges="362088243#1 -217365458#2 -217365458#1 -217365458#0 358043015#3 217365458#1 217365458#2 142470461 216268744 154607613#1 154607613#0 154607611 775381932"/>
    </person>
    <person id="86" depart="86.00">
        <walk edges="159229344#0 216243708#1 775381932 154607611 154607613#0 154607613#1 216268744 142470461 217365458#2 217365458#1 358043015#3 -217365458#0"/>
    </person>
    <person id="87" depart="87.00">
        <walk edges="142470433#3 142470433#2 142470433#1 550301038 218891289 142470465 142470461 216268744 154607613#1 154607613#0 154607611 775381932 216243708#1 159229344#0 159229344#0.2 216268747"/>
    </person>
    <person id="88" depart="88.00">
        <walk edges="28370559#8 28370559#7 -142470423#2 142470423#2"/>
    </person>
    <person id="89" depart="89.00">
        <walk edges="109573928#1 -109573928#1.8 218891289 142470465 142470461 216268744 154607613#1 154607613#0 154607611 775381932 216243708#1 359349713#0 359349713#2"/>
    </person>
    <person id="90" depart="90.00">
        <walk edges="25567763#0 217365460#0 28490061#2 28490061#1 775381932 154607611 154607613#0 154607613#1 216268744 142470461 217365458#2 217365458#1 358043015#3 -217365458#0"/>
    </person>
    <person id="92" depart="92.00">
        <walk edges="549548862#1 -142470423#0 -159229344#0 159229344#0 159229344#0.2 -216268747"/>
    </person>
    <person id="93" depart="93.00">
        <walk edges="-217365458#1 -217365458#0 358043015#3 217365458#1 217365458#2 142470465 218891289 550301038 142470433#1 142470433#2 142470433#3 142470433#4 -142470433#4 -142470433#3"/>
    </person>
    <person id="95" depart="95.00">
        <walk edges="142470465 142470461 216268744 154607613#1 154607613#0 154607611 217365460#2 217365460#1"/>
    </person>
    <person id="96" depart="96.00">
        <walk edges="216268747 159229344#0.2 159229344#0 216243708#1 28490061#1 28490061#2 217365460#0 25567763#0"/>
    </person>
    <person id="97" depart="97.00">
        <walk edges="142470461 216268744 154607613#1 154607613#0 154607611 775381932 28490061#1 28490061#2 217365460#0 25567763#0"/>
    </person>
    <person id="99" depart="99.00">
        <walk edges="28490061#1 28490061#2 217365460#0"/>
    </person>
    <person id="101" depart="101.00">
        <walk edges="142470460#1 142470460#0 -142470433#2 -142470433#3 -142470433#4 142470433#4 142470433#3 142470433#2 142470433#1 550301038 218891289 142470465 142470461 216268744 154607613#1 154607613#0 154607611 775381932 216243708#1 215803157 217691393#1"/>
    </person>
    <person id="102" depart="102.00">
        <walk edges="-159229344#0 216243708#1 775381932 154607611 154607613#0 154607613#1 216268744 142470461 217365458#2 217365458#1 358043015#3"/>
    </person>
    <person id="103" depart="103.00">
        <walk edges="-142470433#1 550301038 218891289 142470465 217365458#2 217365458#1 358043015#3 -217365458#0 -217365458#1 -217365458#2"/>
    </person>
    <person id="104" depart="104.00">
        <walk edges="358043015#3 217365458#1 217365458#2 142470461 216268744 154607613#1 154607613#0 154607611 220346965"/>
    </person>
    <person id="106" depart="106.00">
        <walk edges="217365460#2 775381932 216243708#1 215803157 217691393#1 217691393#0 91731873#1"/>
    </person>
    <person id="107" depart="107.00">
        <walk edges="220346965 216243708#1 -159229344#0"/>
    </person>
    <person id="110" depart="110.00">
        <walk edges="217365458#1 217365458#2 142470465 218891289 -109573928#1.8"/>
    </person>
    <person id="111" depart="111.00">
        <walk edges="358043015#3 217365458#1 217365458#2 142470465 218891289 550301038 142470433#1 142470433#2 142470433#3 142470433#4 -142470433#4"/>
    </person>
    <person id="113" depart="113.00">
        <walk edges="215803157 216243708#1 775381932 154607611 154607613#0 154607613#1 216268744 142470461 217365458#2 217365458#1 358043015#3 -217365458#0"/>
    </person>
    <person id="114" depart="114.00">
        <walk edges="-217365458#2 -217365458#1 -217365458#0 358043015#3 217365458#1 217365458#2 142470465 218891289 550301038 142470433#1 142470433#2 142470433#3 142470433#4 -142470433#4 -142470433#3"/>
    </person>
    <person id="118" depart="118.00">
        <walk edges="550301038 218891289 142470465 217365458#2 217365458#1 358043015#3 -217365458#0 -217365458#1 -217365458#2"/>
    </person>
    <person id="119" depart="119.00">
        <walk edges="359349713#0 216243708#1 775381932 217365460#2"/>
    </person>
    <person id="120" depart="120.00">
        <walk edges="97855879 217365460#2 775381932 216243708#1 215803157 217691393#1 217691393#0 91731873#1"/>
    </person>
    <person id="121" depart="121.00">
        <walk edges="-217365458#1 -217365458#0 358043015#3 217365458#1 217365458#2 142470465 218891289 -109573928#1.8 109573928#1"/>
    </person>
    <person id="123" depart="123.00">
        <walk edges="216268744 142470461 217365458#2"/>
    </person>
    <person id="127" depart="127.00">
        <walk edges="359349713#0 -159229344#0 -142470423#0"/>
    </person>
    <person id="131" depart="131.00">
        <walk edges="217691393#1 215803157 216243708#1 775381932 154607611 154607613#0 154607613#1 216268744 142470461 142470465 218891289 550301038 142470433#1 142470433#2 142470433#3 142470433#4 -142470433#4"/>
    </person>
    <person id="134" depart="134.00">
        <walk edges="-217365458#1 -217365458#0 358043015#3 217365458#1 217365458#2 142470461 216268744 154607613#1 154607613#0 154607611 775381932"/>
    </person>
    <person id="136" depart="136.00">
        <walk edges="358043015#3 217365458#1 217365458#2 142470461 216268744 154607613#1 154607613#0 154607611 775381932 216243708#1"/>
    </person>
    <person id="138" depart="138.00">
        <walk edges="-142470433#4 142470433#4 142470433#3 142470433#2 142470433#1 550301038 218891289"/>
    </person>
    <person id="139" depart="139.00">
        <walk edges="142470433#2 142470433#1 550301038 -109573928#1.8"/>
    </person>
    <person id="140" depart="140.00">
        <walk edges="28490061#2 28490061#1 216243708#1 159229344#0 159229344#0.2"/>
    </person>
    <person id="141" depart="141.00">
        <walk edges="549548862#1 -142470423#0 -159229344#0 216243708#1 775381932 154607611 154607613#0 154607613#1 216268744 142470461 142470465 218891289 -109573928#1.8 109573928#1"/>
    </person>
    <person id="142" depart="142.00">
        <walk edges="216268747 159229344#0.2 159229344#0 216243708#1 775381932 154607611 154607613#0 154607613#1 216268744 142470461 142470465 218891289 550301038 142470433#1 142470433#2 142470433#3 142470433#4 -142470433#4 -142470433#3"/>
    </person>
    <person id="143" depart="143.00">
        <walk edges="142470433#3 142470433#2 142470433#1 550301038 -109573928#1.8"/>
    </person>
    <person id="145" depart="145.00">
        <walk edges="-142470423#0 -159229344#0 216243708#1 775381932 154607611 154607613#0 154607613#1 216268744 142470461 142470465 218891289 -109573928#1.8 109573928#1"/>
    </person>
    <person id="146" depart="146.00">
        <walk edges="159229344#0 216243708#1 775381932 154607611 154607613#0 154607613#1 216268744 142470461 142470465 218891289 550301038 142470433#1 142470433#2 142470433#3 142470433#4 -142470433#4 -142470433#3"/>
    </person>
    <person id="147" depart="147.00">
        <walk edges="142470433#2 142470433#1 550301038 218891289 142470465 217365458#2 217365458#1 358043015#3 -217365458#0 -217365458#1"/>
    </person>
    <person id="148" depart="148.00">
        <walk edges="142470461 216268744 154607613#1 154607613#0 154607611 775381932 216243708#1 359349713#0"/>
    </person>
    <person id="149" depart="149.00">
        <walk edges="159229344#0 216243708#1 775381932 154607611 154607613#0 154607613#1 216268744 142470461 142470465 218891289 -109573928#1.8 109573928#1"/>
    </person>
    <person id="150" depart="150.00">
        <walk edges="549548862#1 -142470423#0 -159229344#0 359349713#0 359349713#2"/>
    </person>
    <person id="151" depart="151.00">
        <walk edges="217365460#0 28490061#2 28490061#1 216243708#1 159229344#0 159229344#0.2 -216268747"/>
    </person>
    <person id="152" depart="152.00">
        <walk edges="217365458#2 142470461 216268744 154607613#1 154607613#0 154607611 775381932 216243708#1 359349713#0"/>
    </person>
    <person id="153" depart="153.00">
        <walk edges="142470465 142470461 216268744 154607613#1 154607613#0 154607611 775381932 216243708#1 359349713#0 359349713#2"/>
    </person>
    <person id="156" depart="156.00">
        <walk edges="159229344#0.2 159229344#0 216243708#1 775381932 154607611"/>
    </person>
    <person id="157" depart="157.00">
        <walk edges="217365460#1 217365460#2 775381932 216243708#1 359349713#0"/>
    </person>
    <person id="159" depart="159.00">
        <walk edges="109573928#1 -109573928#1.8 218891289 142470465 217365458#2 217365458#1 358043015#3 -217365458#0 -217365458#1 -217365458#2 362088243#1 27528360"/>
    </person>
    <person id="163" depart="163.00">
        <walk edges="775381932 154607611 154607613#0 154607613#1 216268744 142470461 142470465 218891289 -109573928#1.8"/>
    </person>
    <person id="165" depart="165.00">
        <walk edges="142470433#4 142470433#3 142470433#2 142470433#1 550301038 218891289 142470465 142470461 216268744 154607613#1 154607613#0 154607611 775381932 216243708#1 215803157 217691393#1 217691393#0"/>
    </person>
    <person id="166" depart="166.00">
        <walk edges="775381932 154607611 154607613#0 154607613#1 216268744 142470461 142470465 218891289 550301038 142470433#1 142470433#2 142470433#3"/>
    </person>
    <person id="170" depart="170.00">
        <walk edges="142470433#1 550301038 218891289 142470465 142470461 216268744 154607613#1 154607613#0 154607611 775381932 28490061#1 28490061#2 217365460#0 25567763#0"/>
    </person>
    <person id="171" depart="171.00">
        <walk edges="217365458#2 142470465 218891289 550301038 142470433#1 142470433#2 142470433#3 142470433#4 -142470433#4 -142470433#3 -142470433#2"/>
    </person>
    <person id="175" depart="175.00">
        <walk edges="-142470433#2 -142470433#3 -142470433#4 142470433#4 142470433#3 142470433#2 142470433#1 550301038 218891289 142470465 142470461 216268744 154607613#1 154607613#0 154607611 217365460#2"/>
    </person>
    <person id="176" depart="176.00">
        <walk edges="-142470433#4 142470433#4 142470433#3 142470433#2 142470433#1 550301038 218891289 142470465 142470461 216268744 154607613#1 154607613#0 154607611 775381932 216243708#1 159229344#0 159229344#0.2"/>
    </person>
    <person id="177" depart="177.00">
        <walk edges="-217365458#2 -217365458#1 -217365458#0 358043015#3 217365458#1 217365458#2 142470461 216268744 154607613#1 154607613#0 154607611 217365460#2 217365460#1"/>
    </person>
    <person id="178" depart="178.00">
        <walk edges="775381932 216243708#1"/>
    </person>
    <person id="180" depart="180.00">
        <walk edges="-142470433#3 -142470433#4"/>
    </person>
    <person id="181" depart="181.00">
        <walk edges="142470433#2 142470433#1 550301038 218891289 142470465"/>
    </person>
    <person id="182" depart="182.00">
        <walk edges="-142470433#2 142470460#0 142470460#1"/>
    </person>
    <person id="185" depart="185.00">
        <walk edges="362088243#1 -217365458#2 -217365458#1 -217365458#0 358043015#3 217365458#1 217365458#2 142470465 218891289 550301038 142470433#1 142470433#2 142470433#3 142470433#4"/>
    </person>
    <person id="186" depart="186.00">
        <walk edges="28490061#1 216243708#1 215803157"/>
    </person>
    <person id="187" depart="187.00">
        <walk edges="142470460#1 142470460#0 -142470433#2 -142470433#3 -142470433#4 142470433#4 142470433#3 142470433#2 142470433#1 550301038 218891289 142470465 217365458#2 217365458#1 358043015#3 -217365458#0 -217365458#1 -217365458#2"/>
    </person>
    <person id="189" depart="189.00">
        <walk edges="142470433#3 142470433#2 142470433#1 550301038 218891289 142470465 217365458#2 217365458#1 358043015#3 -217365458#0 -217365458#1 -217365458#2"/>
    </person>
    <person id="190" depart="190.00">
        <walk edges="550301038 218891289 142470465 142470461 216268744 154607613#1 154607613#0 154607611 775381932 28490061#1 28490061#2 217365460#0 25567763#0"/>
    </person>
    <person id="191" depart="191.00">
        <walk edges="-217365458#0 358043015#3 217365458#1 217365458#2 142470461 216268744 154607613#1 154607613#0 154607611 775381932 216243708#1 215803157 217691393#1 217691393#0"/>
    </person>
    <person id="193" depart="193.00">
        <walk edges="-217365458#1 -217365458#0 358043015#3 217365458#1 217365458#2 142470461 216268744 154607613#1 154607613#0 154607611 775381932 216243708#1 215803157 217691393#1"/>
    </person>
    <person id="194" depart="194.00">
        <walk edges="142470433#1 142470433#2 142470433#3 142470433#4 -142470433#4"/>
    </person>
    <person id="195" depart="195.00">
        <walk edges="217365460#0 28490061#2 28490061#1 775381932 154607611 154607613#0 154607613#1 216268744 142470461 217365458#2 217365458#1"/>
    </person>
    <person id="197" depart="197.00">
        <walk edges="109573928#1 -109573928#1.8 218891289 142470465 142470461 216268744 154607613#1 154607613#0 154607611 217365460#2 97855879"/>
    </person>
    <person id="198" depart="198.00">
        <walk edges="215803157 216243708#1 775381932 154607611 154607613#0 154607613#1 216268744 142470461 142470465 218891289 -109573928#1.8 109573928#1"/>
    </person>
    <person id="202" depart="202.00">
        <walk edges="549548862#1 -142470423#0 -159229344#0 216243708#1 775381932 154607611 154607613#0 154607613#1 216268744 142470461 142470465 218891289 550301038 142470433#1 142470433#2 142470433#3 142470433#4 -142470433#4 -142470433#3 -142470433#2"/>
    </person>
    <person id="203" depart="203.00">
        <walk edges="359349713#0 216243708#1 775381932 154607611 154607613#0 154607613#1 216268744 142470461 142470465 218891289 -109573928#1.8 109573928#1"/>
    </person>
    <person id="209" depart="209.00">
        <walk edges="359349713#2 359349713#0 216243708#1 775381932 217365460#2 97855879"/>
    </person>
    <person id="210" depart="210.00">
        <walk edges="-142470433#3 -142470433#4 142470433#4 142470433#3 142470433#2 142470433#1 550301038"/>
    </person>
    <person id="213" depart="213.00">
        <walk edges="159229344#0 216243708#1 775381932 154607611 154607613#0 154607613#1 216268744 142470461 142470465 218891289 550301038"/>
    </person>
    <person id="214" depart="214.00">
        <walk edges="-142470433#1 550301038 218891289 142470465 142470461 216268744 154607613#1 154607613#0 154607611 775381932 28490061#1 28490061#2 217365460#0 25567763#0"/>
    </person>
    <person id="215" depart="215.00">
        <walk edges="-159229344#0 216243708#1 775381932 154607611 154607613#0 154607613#1 216268744 142470461"/>
    </person>
    <person id="216" depart="216.00">
        <walk edges="-217365458#1 -217365458#0 358043015#3 217365458#1 217365458#2 142470465 218891289 550301038 142470433#1 142470433#2 142470433#3 142470433#4 -142470433#4 -142470433#3 -142470433#2"/>
    </person>
    <person id="217" depart="217.00">
        <walk edges="154607613#1 216268744 142470461 142470465 218891289 550301038 142470433#1 142470433#2 142470433#3 142470433#4 -142470433#4 -142470433#3"/>
    </person>
    <person id="218" depart="218.00">
        <walk edges="216268747 159229344#0.2 159229344#0 216243708#1 775381932 154607611 154607613#0 154607613#1 216268744 142470461 217365458#2 217365458#1 358043015#3 -217365458#0 -217365458#1 -217365458#2 362088243#1 27528360"/>
    </person>
    <person id="221" depart="221.00">
        <walk edges="142470465 142470461 216268744 154607613#1 154607613#0 154607611 775381932 216243708#1 159229344#0 159229344#0.2 216268747"/>
    </person>
    <person id="224" depart="224.00">
        <walk edges="362088243#1 -217365458#2 -217365458#1 -217365458#0 358043015#3 217365458#1 217365458#2"/>
    </person>
    <person id="225" depart="225.00">
        <walk edges="159229344#0 216243708#1 775381932 154607611 154607613#0 154607613#1 216268744 142470461 217365458#2 217365458#1 358043015#3 -217365458#0 -217365458#1 -217365458#2"/>
    </person>
    <person id="226" depart="226.00">
        <walk edges="159229344#0.2 -216268747"/>
    </person>
    <person id="227" depart="227.00">
        <walk edges="-142470433#3 -142470433#4 142470433#4 142470433#3 142470433#2 142470433#1 550301038 218891289 142470465 142470461 216268744 154607613#1 154607613#0 154607611"/>
    </person>
    <person id="228" depart="228.00">
        <walk edges="-217365458#1 -217365458#0 358043015#3 217365458#1 217365458#2 142470461 216268744 154607613#1 154607613#0 154607611 775381932 216243708#1 159229344#0 159229344#0.2"/>
    </person>
    <person id="229" depart="229.00">
        <walk edges="216243708#1 159229344#0 159229344#0.2 216268747"/>
    </person>
    <person id="230" depart="230.00">
        <walk edges="220346965 154607611 154607613#0 154607613#1 216268744 142470461 217365458#2 217365458#1 358043015#3 -217365458#0 -217365458#1"/>
    </person>
    <person id="231" depart="231.00">
        <walk edges="97855879 217365460#2 775381932 216243708#1 359349713#0 359349713#2"/>
    </person>
    <person id="232" depart="232.00">
        <walk edges="142470433#1 550301038 218891289 142470465 142470461 216268744 154607613#1 154607613#0"/>
    </person>
    <person id="233" depart="233.00">
        <walk edges="550301038 218891289 142470465 142470461 216268744 154607613#1 154607613#0 154607611 775381932 216243708#1 -159229344#0 -142470423#0"/>
    </person>
    <person id="235" depart="235.00">
        <walk edges="-109573928#1.8 550301038 -142470433#1"/>
    </person>
    <person id="237" depart="237.00">
        <walk edges="142470423#0 142470423#1 142470423#2"/>
    </person>
    <person id="238" depart="238.00">
        <walk edges="220346965 216243708#1 215803157 215803174#0"/>
    </person>
    <person id="241" depart="241.00">