<?xml version="1.0" encoding="UTF-8"?>

<!-- generated on 05/09/20 22:02:24 by Eclipse SUMO netedit Version 1.5.0
<configuration xmlns:xsi="http://www.w3.org/2001/XMLSchema-instance" xsi:noNamespaceSchemaLocation="http://sumo.dlr.de/xsd/netconvertConfiguration.xsd">

    <input>
        <sumo-net-file value="anchieta.net.xml"/>
    </input>

    <output>
        <output-file value="anchieta.net.xml"/>
    </output>

    <processing>
        <geometry.min-radius.fix.railways value="false"/>
        <geometry.max-grade.fix value="false"/>
        <offset.disable-normalization value="true"/>
        <lefthand value="false"/>
    </processing>

    <junctions>
        <no-internal-links value="false"/>
        <no-turnarounds value="true"/>
        <junctions.corner-detail value="5"/>
        <junctions.limit-turn-speed value="5.5"/>
        <rectangular-lane-cut value="false"/>
    </junctions>

    <pedestrian>
        <walkingareas value="false"/>
    </pedestrian>

    <report>
        <aggregate-warnings value="5"/>
    </report>

</configuration>
-->

<net version="1.3" junctionCornerDetail="5" limitTurnSpeed="5.50" xmlns:xsi="http://www.w3.org/2001/XMLSchema-instance" xsi:noNamespaceSchemaLocation="http://sumo.dlr.de/xsd/net_file.xsd">

    <location netOffset="-369896.65,-3149637.98" convBoundary="559.64,457.30,2001.84,2100.67" origBoundary="-16.329101,28.467015,-16.307346,28.487001" projParameter="+proj=utm +zone=28 +ellps=WGS84 +datum=WGS84 +units=m +no_defs"/>

    <type id="highway.bridleway" priority="1" numLanes="1" speed="2.78" allow="pedestrian" oneway="1" width="2.00"/>
    <type id="highway.bus_guideway" priority="1" numLanes="1" speed="27.78" allow="bus" oneway="1"/>
    <type id="highway.cycleway" priority="1" numLanes="1" speed="8.33" allow="bicycle" oneway="0" width="1.00"/>
    <type id="highway.footway" priority="1" numLanes="1" speed="2.78" allow="pedestrian" oneway="1" width="2.00"/>
    <type id="highway.ford" priority="1" numLanes="1" speed="2.78" allow="army" oneway="0"/>
    <type id="highway.living_street" priority="2" numLanes="1" speed="2.78" disallow="tram rail_urban rail rail_electric rail_fast ship" oneway="0"/>
    <type id="highway.motorway" priority="14" numLanes="2" speed="39.44" allow="private emergency authority army vip passenger hov taxi bus coach delivery truck trailer motorcycle evehicle custom1 custom2" oneway="1"/>
    <type id="highway.motorway_link" priority="9" numLanes="1" speed="22.22" allow="private emergency authority army vip passenger hov taxi bus coach delivery truck trailer motorcycle evehicle custom1 custom2" oneway="1"/>
    <type id="highway.path" priority="1" numLanes="1" speed="2.78" allow="pedestrian bicycle" oneway="1" width="2.00"/>
    <type id="highway.pedestrian" priority="1" numLanes="1" speed="2.78" allow="pedestrian" oneway="1" width="2.00"/>
    <type id="highway.primary" priority="12" numLanes="2" speed="27.78" disallow="pedestrian tram rail_urban rail rail_electric rail_fast ship" oneway="0" sidewalkWidth="3.00"/>
    <type id="highway.primary_link" priority="7" numLanes="1" speed="22.22" disallow="pedestrian tram rail_urban rail rail_electric rail_fast ship" oneway="0" sidewalkWidth="3.00"/>
    <type id="highway.raceway" priority="15" numLanes="2" speed="83.33" allow="vip" oneway="0"/>
    <type id="highway.residential" priority="3" numLanes="1" speed="13.89" disallow="pedestrian tram rail_urban rail rail_electric rail_fast ship" oneway="0" sidewalkWidth="2.00"/>
    <type id="highway.secondary" priority="11" numLanes="1" speed="27.78" disallow="pedestrian tram rail_urban rail rail_electric rail_fast ship" oneway="0" sidewalkWidth="3.00"/>
    <type id="highway.secondary_link" priority="6" numLanes="1" speed="22.22" disallow="pedestrian tram rail_urban rail rail_electric rail_fast ship" oneway="0" sidewalkWidth="3.00"/>
    <type id="highway.service" priority="1" numLanes="1" speed="5.56" allow="pedestrian delivery bicycle" oneway="0"/>
    <type id="highway.stairs" priority="1" numLanes="1" speed="1.39" allow="pedestrian" oneway="1" width="2.00"/>
    <type id="highway.step" priority="1" numLanes="1" speed="1.39" allow="pedestrian" oneway="1" width="2.00"/>
    <type id="highway.steps" priority="1" numLanes="1" speed="1.39" allow="pedestrian" oneway="1" width="2.00"/>
    <type id="highway.tertiary" priority="10" numLanes="1" speed="22.22" disallow="pedestrian tram rail_urban rail rail_electric rail_fast ship" oneway="0" sidewalkWidth="3.00"/>
    <type id="highway.tertiary_link" priority="5" numLanes="1" speed="22.22" disallow="pedestrian tram rail_urban rail rail_electric rail_fast ship" oneway="0" sidewalkWidth="2.00"/>
    <type id="highway.track" priority="1" numLanes="1" speed="5.56" disallow="tram rail_urban rail rail_electric rail_fast ship" oneway="0"/>
    <type id="highway.trunk" priority="13" numLanes="2" speed="27.78" disallow="pedestrian bicycle tram rail_urban rail rail_electric rail_fast ship" oneway="0"/>
    <type id="highway.trunk_link" priority="8" numLanes="1" speed="22.22" disallow="pedestrian bicycle tram rail_urban rail rail_electric rail_fast ship" oneway="0"/>
    <type id="highway.unclassified" priority="4" numLanes="1" speed="13.89" disallow="pedestrian tram rail_urban rail rail_electric rail_fast ship" oneway="0" sidewalkWidth="2.00"/>
    <type id="highway.unsurfaced" priority="1" numLanes="1" speed="8.33" disallow="tram rail_urban rail rail_electric rail_fast ship" oneway="0"/>
    <type id="railway.highspeed" priority="21" numLanes="1" speed="69.44" allow="rail_fast" oneway="1"/>
    <type id="railway.light_rail" priority="19" numLanes="1" speed="27.78" allow="rail_urban" oneway="1"/>
    <type id="railway.preserved" priority="16" numLanes="1" speed="27.78" allow="rail" oneway="1"/>
    <type id="railway.rail" priority="20" numLanes="1" speed="44.44" allow="rail" oneway="1"/>
    <type id="railway.subway" priority="18" numLanes="1" speed="27.78" allow="rail_urban" oneway="1"/>
    <type id="railway.tram" priority="17" numLanes="1" speed="13.89" allow="tram" oneway="1"/>

    <edge id=":1001504521_0" function="internal">
        <lane id=":1001504521_0_0" index="0" disallow="pedestrian tram rail_urban rail rail_electric rail_fast ship" speed="27.78" length="24.87" shape="1316.46,1198.11 1333.28,1179.80"/>
    </edge>
    <edge id=":1001504521_1" function="internal">
        <lane id=":1001504521_1_0" index="0" allow="private emergency authority army vip passenger hov taxi bus coach delivery truck trailer motorcycle evehicle custom1 custom2" speed="25.00" length="24.87" shape="1318.87,1200.22 1335.96,1182.14"/>
    </edge>
    <edge id=":1065961820_0" function="internal">
        <lane id=":1065961820_0_0" index="0" disallow="pedestrian tram rail_urban rail rail_electric rail_fast ship" speed="13.89" length="0.31" shape="1055.04,1263.64 1055.03,1263.32"/>
    </edge>
    <edge id=":1065961820_1" function="internal">
        <lane id=":1065961820_1_0" index="0" disallow="pedestrian tram rail_urban rail rail_electric rail_fast ship" speed="13.89" length="0.27" shape="1058.23,1263.26 1058.23,1263.54"/>
    </edge>
    <edge id=":1065961820_w0" function="walkingarea">
        <lane id=":1065961820_w0_0" index="0" allow="pedestrian" speed="1.00" length="0.35" width="3.00" shape="1053.43,1263.35 1050.43,1263.41 1050.44,1263.78 1053.44,1263.69"/>
    </edge>
    <edge id=":1065961820_w1" function="walkingarea">
        <lane id=":1065961820_w1_0" index="0" allow="pedestrian" speed="1.00" length="0.23" width="3.00" shape="1059.83,1263.49 1062.83,1263.39 1062.83,1263.18 1059.83,1263.24"/>
    </edge>
    <edge id=":1132622212_0" function="internal">
        <lane id=":1132622212_0_0" index="0" allow="delivery bicycle" speed="6.65" length="7.81" shape="1069.46,1616.60 1068.71,1615.83 1067.22,1615.42 1065.00,1615.38 1062.05,1615.71"/>
    </edge>
    <edge id=":1132622212_1" function="internal">
        <lane id=":1132622212_1_0" index="0" disallow="pedestrian tram rail_urban rail rail_electric rail_fast ship" speed="11.00" length="6.60" shape="1069.46,1616.60 1066.81,1610.63"/>
        <lane id=":1132622212_1_1" index="1" disallow="pedestrian tram rail_urban rail rail_electric rail_fast ship" speed="11.00" length="6.60" shape="1072.43,1615.41 1069.72,1609.31"/>
    </edge>
    <edge id=":1132622212_w0" function="walkingarea">
        <lane id=":1132622212_w0_0" index="0" allow="pedestrian" speed="1.00" length="5.21" width="3.20" shape="1065.36,1611.30 1062.63,1612.54 1061.81,1614.13 1062.29,1617.29 1065.19,1618.32 1067.97,1617.20"/>
    </edge>
    <edge id=":1163001906_0" function="internal">
        <lane id=":1163001906_0_0" index="0" allow="private emergency authority army vip passenger hov taxi bus coach delivery truck trailer motorcycle evehicle custom1 custom2" speed="27.77" length="8.02" shape="845.13,1800.29 839.60,1806.10"/>
    </edge>
    <edge id=":1163001906_1" function="internal">
        <lane id=":1163001906_1_0" index="0" allow="private emergency authority army vip passenger hov taxi bus coach delivery truck trailer motorcycle evehicle custom1 custom2" speed="33.33" length="8.00" shape="842.74,1798.06 837.27,1803.91"/>
        <lane id=":1163001906_1_1" index="1" allow="private emergency authority army vip passenger hov taxi bus coach delivery truck trailer motorcycle evehicle custom1 custom2" speed="33.33" length="8.00" shape="840.40,1795.88 834.94,1801.72"/>
        <lane id=":1163001906_1_2" index="2" allow="private emergency authority army vip passenger hov taxi bus coach delivery truck trailer motorcycle evehicle custom1 custom2" speed="33.33" length="8.00" shape="838.06,1793.69 832.61,1799.53"/>
    </edge>
    <edge id=":1163001926_0" function="internal">
        <lane id=":1163001926_0_0" index="0" disallow="pedestrian tram rail_urban rail rail_electric rail_fast ship" speed="8.33" length="0.29" shape="920.81,1574.15 920.52,1574.19"/>
    </edge>
    <edge id=":1163001926_1" function="internal">
        <lane id=":1163001926_1_0" index="0" disallow="pedestrian tram rail_urban rail rail_electric rail_fast ship" speed="8.33" length="0.31" shape="920.08,1571.02 920.39,1570.97"/>
    </edge>
    <edge id=":1163001926_w0" function="walkingarea">
        <lane id=":1163001926_w0_0" index="0" allow="pedestrian" speed="1.00" length="0.28" width="3.00" shape="920.74,1575.77 921.15,1578.74 921.42,1578.71 921.02,1575.73"/>
    </edge>
    <edge id=":1163001926_w1" function="walkingarea">
        <lane id=":1163001926_w1_0" index="0" allow="pedestrian" speed="1.00" length="0.32" width="3.00" shape="920.18,1569.39 919.78,1566.41 919.46,1566.46 919.87,1569.43"/>
    </edge>
    <edge id=":1163001937_0" function="internal">
        <lane id=":1163001937_0_0" index="0" allow="private emergency authority army vip passenger hov taxi bus coach delivery truck trailer motorcycle evehicle custom1 custom2" speed="25.00" length="8.02" shape="756.62,1852.35 761.94,1846.34"/>
        <lane id=":1163001937_0_1" index="1" allow="private emergency authority army vip passenger hov taxi bus coach delivery truck trailer motorcycle evehicle custom1 custom2" speed="25.00" length="8.02" shape="759.02,1854.46 764.33,1848.46"/>
    </edge>
    <edge id=":1163001937_2" function="internal">
        <lane id=":1163001937_2_0" index="0" allow="private emergency authority army vip passenger hov taxi bus coach delivery truck trailer motorcycle evehicle custom1 custom2" speed="30.56" length="7.98" shape="761.42,1856.58 766.77,1850.63"/>
        <lane id=":1163001937_2_1" index="1" allow="private emergency authority army vip passenger hov taxi bus coach delivery truck trailer motorcycle evehicle custom1 custom2" speed="30.56" length="7.98" shape="763.82,1858.69 769.16,1852.75"/>
        <lane id=":1163001937_2_2" index="2" allow="private emergency authority army vip passenger hov taxi bus coach delivery truck trailer motorcycle evehicle custom1 custom2" speed="30.56" length="7.98" shape="766.23,1860.81 771.55,1854.88"/>
    </edge>
    <edge id=":1165301824_0" function="internal">
        <lane id=":1165301824_0_0" index="0" disallow="pedestrian tram rail_urban rail rail_electric rail_fast ship" speed="27.78" length="16.83" shape="1592.58,876.71 1594.90,874.02 1597.08,871.19 1599.54,867.75 1602.69,863.28"/>
    </edge>
    <edge id=":1165301824_1" function="internal">
        <lane id=":1165301824_1_0" index="0" allow="private emergency authority army vip passenger hov taxi bus coach delivery truck trailer motorcycle evehicle custom1 custom2" speed="25.00" length="15.32" shape="1596.70,877.80 1605.31,865.12"/>
    </edge>
    <edge id=":1165301826_0" function="internal">
        <lane id=":1165301826_0_0" index="0" allow="private emergency authority army vip passenger hov taxi bus coach delivery truck trailer motorcycle evehicle custom1 custom2" speed="25.00" length="1.50" shape="1499.10,1048.97 1497.97,1047.98"/>
    </edge>
    <edge id=":1165301878_0" function="internal">
        <lane id=":1165301878_0_0" index="0" allow="private emergency authority army vip passenger hov taxi bus coach delivery truck trailer motorcycle evehicle custom1 custom2" speed="30.83" length="9.03" shape="1552.97,937.86 1554.75,935.86 1556.00,934.52 1557.32,933.24 1559.27,931.41"/>
    </edge>
    <edge id=":1165301878_1" function="internal">
        <lane id=":1165301878_1_0" index="0" allow="private emergency authority army vip passenger hov taxi bus coach delivery truck trailer motorcycle evehicle custom1 custom2" speed="39.44" length="8.43" shape="1555.37,939.97 1561.16,933.42"/>
        <lane id=":1165301878_1_1" index="1" allow="private emergency authority army vip passenger hov taxi bus coach delivery truck trailer motorcycle evehicle custom1 custom2" speed="39.44" length="8.43" shape="1557.77,942.09 1563.36,935.77"/>
        <lane id=":1165301878_1_2" index="2" allow="private emergency authority army vip passenger hov taxi bus coach delivery truck trailer motorcycle evehicle custom1 custom2" speed="39.44" length="8.43" shape="1560.18,944.20 1565.55,938.11"/>
    </edge>
    <edge id=":1165301884_0" function="internal">
        <lane id=":1165301884_0_0" index="0" allow="private emergency authority army vip passenger hov taxi bus coach delivery truck trailer motorcycle evehicle custom1 custom2" speed="27.77" length="7.90" shape="1357.38,1159.81 1362.69,1153.95"/>
    </edge>
    <edge id=":1165301884_1" function="internal">
        <lane id=":1165301884_1_0" index="0" allow="private emergency authority army vip passenger hov taxi bus coach delivery truck trailer motorcycle evehicle custom1 custom2" speed="33.33" length="8.00" shape="1359.90,1162.03 1365.12,1156.04"/>
        <lane id=":1165301884_1_1" index="1" allow="private emergency authority army vip passenger hov taxi bus coach delivery truck trailer motorcycle evehicle custom1 custom2" speed="33.33" length="8.00" shape="1362.30,1164.15 1367.55,1158.12"/>
        <lane id=":1165301884_1_2" index="2" allow="private emergency authority army vip passenger hov taxi bus coach delivery truck trailer motorcycle evehicle custom1 custom2" speed="33.33" length="8.00" shape="1364.69,1166.27 1369.98,1160.20"/>
    </edge>
    <edge id=":1165301917_0" function="internal">
        <lane id=":1165301917_0_0" index="0" disallow="pedestrian tram rail_urban rail rail_electric rail_fast ship" speed="27.78" length="0.30" shape="1207.17,1323.14 1207.36,1322.92"/>
        <lane id=":1165301917_0_1" index="1" disallow="pedestrian tram rail_urban rail rail_electric rail_fast ship" speed="27.78" length="0.30" shape="1209.57,1325.26 1209.77,1325.03"/>
    </edge>
    <edge id=":1431457508_0" function="internal">
        <lane id=":1431457508_0_0" index="0" disallow="pedestrian tram rail_urban rail rail_electric rail_fast ship" speed="27.78" length="11.24" shape="1556.94,1074.19 1562.90,1083.72"/>
    </edge>
    <edge id=":1431457508_1" function="internal">
        <lane id=":1431457508_1_0" index="0" disallow="pedestrian tram rail_urban rail rail_electric rail_fast ship" speed="10.62" length="11.30" shape="1553.95,1077.36 1556.91,1078.35 1559.38,1079.74 1561.38,1081.53 1562.90,1083.72"/>
    </edge>
    <edge id=":1431457518_0" function="internal">
        <lane id=":1431457518_0_0" index="0" disallow="pedestrian tram rail_urban rail rail_electric rail_fast ship" speed="27.78" length="0.70" shape="1566.07,1089.62 1566.16,1089.80 1566.21,1089.94 1566.23,1090.08 1566.24,1090.29"/>
    </edge>
    <edge id=":1431457541_w0" function="walkingarea">
        <lane id=":1431457541_w0_0" index="0" allow="pedestrian" speed="1.00" length="9.40" width="3.00" shape="762.08,1110.22 764.60,1108.60 754.16,1115.28 756.68,1113.66"/>
    </edge>
    <edge id=":1431457859_w0" function="walkingarea">
        <lane id=":1431457859_w0_0" index="0" allow="pedestrian" speed="1.00" length="9.40" width="3.00" shape="1411.76,1507.17 1412.16,1510.14 1410.50,1497.86 1410.90,1500.83"/>
    </edge>
    <edge id=":1559166755_0" function="internal">
        <lane id=":1559166755_0_0" index="0" disallow="pedestrian tram rail_urban rail rail_electric rail_fast ship" speed="18.06" length="33.05" shape="1061.54,1383.15 1063.89,1416.12"/>
    </edge>
    <edge id=":1559166755_1" function="internal">
        <lane id=":1559166755_1_0" index="0" disallow="pedestrian tram rail_urban rail rail_electric rail_fast ship" speed="13.89" length="33.54" shape="1061.54,1383.15 1061.41,1391.21 1060.60,1399.89 1059.16,1408.49 1057.10,1416.26"/>
    </edge>
    <edge id=":1559166755_2" function="internal">
        <lane id=":1559166755_2_0" index="0" disallow="pedestrian tram rail_urban rail rail_electric rail_fast ship" speed="13.89" length="33.18" shape="1053.82,1415.98 1055.89,1408.27 1057.37,1399.80 1058.20,1391.24 1058.35,1383.24"/>
    </edge>
    <edge id=":1559166755_w0" function="walkingarea">
        <lane id=":1559166755_w0_0" index="0" allow="pedestrian" speed="1.00" length="31.95" width="3.00" shape="1065.48,1414.94 1068.48,1414.92 1066.14,1383.02 1063.14,1383.11"/>
    </edge>
    <edge id=":1559166755_w1" function="walkingarea">
        <lane id=":1559166755_w1_0" index="0" allow="pedestrian" speed="1.00" length="32.71" width="3.00" shape="1056.75,1383.28 1053.75,1383.36 1049.22,1415.24 1052.06,1416.18 1054.44,1408.86 1055.82,1403.88 1056.61,1399.69 1056.93,1395.42 1056.93,1390.24"/>
    </edge>
    <edge id=":1559166771_0" function="internal">
        <lane id=":1559166771_0_0" index="0" disallow="pedestrian tram rail_urban rail rail_electric rail_fast ship" speed="25.00" length="70.07" shape="1083.31,1460.74 1093.91,1452.87 1108.21,1437.14 1121.93,1420.43 1130.76,1409.59"/>
    </edge>
    <edge id=":1559166771_1" function="internal">
        <lane id=":1559166771_1_0" index="0" disallow="pedestrian tram rail_urban rail rail_electric rail_fast ship" speed="27.78" length="69.54" shape="1089.24,1465.62 1133.16,1411.70"/>
    </edge>
    <edge id=":1559166778_0" function="internal">
        <lane id=":1559166778_0_0" index="0" disallow="pedestrian tram rail_urban rail rail_electric rail_fast ship" speed="22.22" length="5.00" shape="1063.94,1421.46 1063.98,1426.46"/>
    </edge>
    <edge id=":1559166778_1" function="internal">
        <lane id=":1559166778_1_0" index="0" allow="bicycle" speed="12.50" length="3.79" width="2.00" shape="1063.94,1421.46 1061.17,1424.05"/>
    </edge>
    <edge id=":1559166778_w0" function="walkingarea">
        <lane id=":1559166778_w0_0" index="0" allow="pedestrian" speed="1.00" length="5.01" width="3.00" shape="1065.58,1426.45 1068.58,1426.43 1068.54,1421.42 1065.54,1421.45"/>
    </edge>
    <edge id=":1559166874_0" function="internal">
        <lane id=":1559166874_0_0" index="0" disallow="pedestrian tram rail_urban rail rail_electric rail_fast ship" speed="8.33" length="0.30" shape="870.96,1580.88 870.66,1580.92"/>
    </edge>
    <edge id=":1559166874_1" function="internal">
        <lane id=":1559166874_1_0" index="0" disallow="pedestrian tram rail_urban rail rail_electric rail_fast ship" speed="8.33" length="0.29" shape="870.26,1577.74 870.55,1577.70"/>
    </edge>
    <edge id=":1559166874_w0" function="walkingarea">
        <lane id=":1559166874_w0_0" index="0" allow="pedestrian" speed="1.00" length="0.32" width="3.00" shape="870.86,1582.50 871.24,1585.48 871.56,1585.44 871.17,1582.46"/>
    </edge>
    <edge id=":1559166874_w1" function="walkingarea">
        <lane id=":1559166874_w1_0" index="0" allow="pedestrian" speed="1.00" length="0.28" width="3.00" shape="870.35,1576.12 869.96,1573.14 869.68,1573.18 870.06,1576.15"/>
    </edge>
    <edge id=":1559166890_w0" function="walkingarea">
        <lane id=":1559166890_w0_0" index="0" allow="pedestrian" speed="1.00" length="1.61" width="2.00" shape="1074.78,1592.05 1076.67,1591.40 1073.59,1590.44 1074.78,1592.05"/>
    </edge>
    <edge id=":1559166904_0" function="internal">
        <lane id=":1559166904_0_0" index="0" allow="private emergency authority army vip passenger hov taxi bus coach delivery truck trailer motorcycle evehicle custom1 custom2" speed="22.22" length="0.75" shape="1030.63,1598.74 1031.12,1598.17"/>
    </edge>
    <edge id=":1658380508_0" function="internal">
        <lane id=":1658380508_0_0" index="0" allow="private emergency authority army vip passenger hov taxi bus coach delivery truck trailer motorcycle evehicle custom1 custom2" speed="36.38" length="0.29" shape="1465.37,1041.27 1465.59,1041.02"/>
        <lane id=":1658380508_0_1" index="1" allow="private emergency authority army vip passenger hov taxi bus coach delivery truck trailer motorcycle evehicle custom1 custom2" speed="36.38" length="0.29" shape="1467.77,1043.38 1467.97,1043.16"/>
        <lane id=":1658380508_0_2" index="2" allow="private emergency authority army vip passenger hov taxi bus coach delivery truck trailer motorcycle evehicle custom1 custom2" speed="36.38" length="0.29" shape="1470.18,1045.49 1470.34,1045.31"/>
    </edge>
    <edge id=":1658380520_0" function="internal">
        <lane id=":1658380520_0_0" index="0" disallow="pedestrian tram rail_urban rail rail_electric rail_fast ship" speed="27.78" length="15.45" shape="1551.05,1111.87 1547.71,1112.37 1544.67,1113.51 1541.20,1115.02 1536.52,1116.62"/>
        <lane id=":1658380520_0_1" index="1" disallow="pedestrian tram rail_urban rail rail_electric rail_fast ship" speed="27.78" length="15.45" shape="1551.05,1111.87 1547.59,1111.88 1544.28,1111.96 1540.51,1112.41 1535.66,1113.54"/>
    </edge>
    <edge id=":1658380520_2" function="internal">
        <lane id=":1658380520_2_0" index="0" disallow="pedestrian tram rail_urban rail rail_electric rail_fast ship" speed="11.71" length="16.06" shape="1551.05,1111.87 1546.10,1111.66 1541.99,1110.78 1538.72,1109.23 1536.30,1107.02"/>
    </edge>
    <edge id=":1713236907_0" function="internal">
        <lane id=":1713236907_0_0" index="0" allow="bus" speed="5.56" length="16.38" shape="1161.61,1461.74 1152.13,1475.10"/>
    </edge>
    <edge id=":1713236907_1" function="internal">
        <lane id=":1713236907_1_0" index="0" allow="bus" speed="5.56" length="14.20" shape="1161.61,1461.74 1158.99,1465.12 1156.23,1467.50 1153.32,1468.86 1150.28,1469.21"/>
    </edge>
    <edge id=":1713236907_2" function="internal">
        <lane id=":1713236907_2_0" index="0" allow="bus" speed="5.56" length="14.81" shape="1156.47,1461.21 1156.23,1464.93 1155.46,1468.55 1154.11,1471.97 1152.13,1475.10"/>
    </edge>
    <edge id=":1713236907_3" function="internal">
        <lane id=":1713236907_3_0" index="0" allow="bus" speed="5.56" length="11.61" shape="1156.47,1461.21 1156.10,1464.82 1154.94,1467.36 1153.00,1468.83 1150.28,1469.21"/>
    </edge>
    <edge id=":1713236912_0" function="internal">
        <lane id=":1713236912_0_0" index="0" allow="bus" speed="8.33" length="8.68" shape="1115.88,1501.90 1113.43,1502.71 1111.71,1503.31 1110.23,1504.26 1108.52,1506.10"/>
    </edge>
    <edge id=":1713236912_1" function="internal">
        <lane id=":1713236912_1_0" index="0" allow="private emergency authority army vip passenger hov taxi bus coach delivery truck trailer motorcycle evehicle custom1 custom2" speed="11.11" length="12.24" shape="1117.13,1497.46 1108.52,1506.10"/>
        <lane id=":1713236912_1_1" index="1" allow="private emergency authority army vip passenger hov taxi bus coach delivery truck trailer motorcycle evehicle custom1 custom2" speed="11.11" length="12.24" shape="1114.69,1495.39 1106.03,1504.08"/>
    </edge>
    <edge id=":1864356531_0" function="internal">
        <lane id=":1864356531_0_0" index="0" allow="private emergency authority army vip passenger hov taxi bus coach delivery truck trailer motorcycle evehicle custom1 custom2" speed="22.22" length="8.00" shape="875.29,1771.99 869.38,1777.39"/>
    </edge>
    <edge id=":1864356535_0" function="internal">
        <lane id=":1864356535_0_0" index="0" allow="private emergency authority army vip passenger hov taxi bus coach delivery truck trailer motorcycle evehicle custom1 custom2" speed="33.33" length="7.98" shape="810.65,1832.25 805.32,1838.08"/>
        <lane id=":1864356535_0_1" index="1" allow="private emergency authority army vip passenger hov taxi bus coach delivery truck trailer motorcycle evehicle custom1 custom2" speed="33.33" length="7.98" shape="808.32,1830.06 802.93,1835.95"/>
        <lane id=":1864356535_0_2" index="2" allow="private emergency authority army vip passenger hov taxi bus coach delivery truck trailer motorcycle evehicle custom1 custom2" speed="33.33" length="7.98" shape="805.99,1827.87 800.54,1833.83"/>
    </edge>
    <edge id=":1868821337_0" function="internal">
        <lane id=":1868821337_0_0" index="0" allow="bus" speed="5.56" length="6.88" shape="1157.78,1454.52 1156.67,1456.14 1156.32,1457.48 1156.36,1458.95 1156.47,1461.01"/>
    </edge>
    <edge id=":1868821337_1" function="internal">
        <lane id=":1868821337_1_0" index="0" allow="bus" speed="5.56" length="7.96" shape="1157.78,1454.52 1152.67,1460.63"/>
    </edge>
    <edge id=":1868821339_0" function="internal">
        <lane id=":1868821339_0_0" index="0" allow="bus" speed="5.56" length="6.69" shape="1150.08,1469.20 1148.05,1469.24 1146.35,1469.58 1144.98,1470.22 1143.92,1471.16"/>
    </edge>
    <edge id=":1868821339_1" function="internal">
        <lane id=":1868821339_1_0" index="0" allow="bus" speed="5.56" length="8.05" shape="1149.06,1464.97 1143.92,1471.16"/>
    </edge>
    <edge id=":1868821345_0" function="internal">
        <lane id=":1868821345_0_0" index="0" allow="bus" speed="4.24" length="1.26" shape="1209.71,1506.96 1210.00,1506.74 1210.18,1506.54 1210.28,1506.30 1210.35,1505.94"/>
    </edge>
    <edge id=":2084331661_0" function="internal">
        <lane id=":2084331661_0_0" index="0" allow="pedestrian delivery bicycle" speed="3.65" length="4.67" shape="1207.87,1518.31 1208.49,1517.01 1209.23,1516.50 1210.07,1516.78 1211.04,1517.85"/>
    </edge>
    <edge id=":2108521553_0" function="internal">
        <lane id=":2108521553_0_0" index="0" allow="private emergency authority army vip passenger hov taxi bus coach delivery truck trailer motorcycle evehicle custom1 custom2" speed="22.22" length="7.96" shape="912.54,1733.25 907.22,1739.18"/>
    </edge>
    <edge id=":2108521553_1" function="internal">
        <lane id=":2108521553_1_0" index="0" allow="private emergency authority army vip passenger hov taxi bus coach delivery truck trailer motorcycle evehicle custom1 custom2" speed="22.22" length="8.02" shape="914.93,1735.37 909.58,1741.34"/>
    </edge>
    <edge id=":2125248390_0" function="internal">
        <lane id=":2125248390_0_0" index="0" allow="bus" speed="5.56" length="9.74" shape="1121.16,1498.91 1114.79,1506.27"/>
    </edge>
    <edge id=":2125248390_1" function="internal">
        <lane id=":2125248390_1_0" index="0" allow="bus" speed="5.56" length="6.00" shape="1121.16,1498.91 1119.96,1500.18 1118.95,1500.84 1117.77,1501.26 1116.07,1501.83"/>
    </edge>
    <edge id=":216243701-AddedOffRampNode_0" function="internal">
        <lane id=":216243701-AddedOffRampNode_0_0" index="0" allow="private emergency authority army vip passenger hov taxi bus coach delivery truck trailer motorcycle evehicle custom1 custom2" speed="27.78" length="8.73" shape="695.34,1931.63 696.36,1928.94 695.58,1926.51 694.79,1924.07 695.82,1921.39"/>
        <lane id=":216243701-AddedOffRampNode_0_1" index="1" allow="private emergency authority army vip passenger hov taxi bus coach delivery truck trailer motorcycle evehicle custom1 custom2" speed="27.78" length="8.73" shape="695.34,1931.63 696.59,1929.45 696.78,1927.57 696.97,1925.68 698.22,1923.51"/>
        <lane id=":216243701-AddedOffRampNode_0_2" index="2" allow="private emergency authority army vip passenger hov taxi bus coach delivery truck trailer motorcycle evehicle custom1 custom2" speed="27.78" length="8.73" shape="695.34,1931.63 700.62,1925.62"/>
        <lane id=":216243701-AddedOffRampNode_0_3" index="3" allow="private emergency authority army vip passenger hov taxi bus coach delivery truck trailer motorcycle evehicle custom1 custom2" speed="27.78" length="8.73" shape="697.74,1933.74 703.02,1927.73"/>
        <lane id=":216243701-AddedOffRampNode_0_4" index="4" allow="private emergency authority army vip passenger hov taxi bus coach delivery truck trailer motorcycle evehicle custom1 custom2" speed="27.78" length="8.73" shape="700.14,1935.85 705.43,1929.85"/>
    </edge>
    <edge id=":216657562-AddedOffRampNode_0" function="internal">
        <lane id=":216657562-AddedOffRampNode_0_0" index="0" allow="private emergency authority army vip passenger hov taxi bus coach delivery truck trailer motorcycle evehicle custom1 custom2" speed="39.44" length="8.20" shape="1489.30,1014.82 1490.58,1012.66 1490.80,1010.78 1491.01,1008.90 1492.29,1006.74"/>